/*---------------------------------------------------------------------------*\
| =========                 |                                                 |
| \\      /  F ield         | OpenFOAM: The Open Source CFD Toolbox           |
|  \\    /   O peration     | Version:  3.0.1                                 |
|   \\  /    A nd           | Web:      www.OpenFOAM.org                      |
|    \\/     M anipulation  |                                                 |
\*---------------------------------------------------------------------------*/
Build  : 3.0.1-bc1922f074df
Exec   : PUFoam
Date   : Jun 23 2016
Time   : 08:20:43
Host   : "mohsen-ubuntu"
PID    : 12883
Case   : /home/mohsen/OpenFOAM/mohsen-3.0.1/run/submissionTestCase
nProcs : 1
sigFpe : Enabling floating point exception trapping (FOAM_SIGFPE).
fileModificationChecking : Monitoring run-time modified files using timeStampMaster
allowSystemOperations : Allowing user-supplied system call operations

// * * * * * * * * * * * * * * * * * * * * * * * * * * * * * * * * * * * * * //
Create time

Create mesh for time = 0


Reading g

PIMPLE: Operating solver in PISO mode

Reading field p_rgh

Reading field U

Reading/calculating face flux field phi

Constructing twoPhaseMixtureThermo

Selecting thermodynamics package 
{
    type            heRhoThermo;
    mixture         pureMixture;
    transport       const;
    thermo          hConst;
    equationOfState perfectGas;
    specie          specie;
    energy          sensibleInternalEnergy;
}

Selecting thermodynamics package 
{
    type            heRhoThermo;
    mixture         pureMixture;
    transport       const;
    thermo          hConst;
    equationOfState perfectFluid;
    specie          specie;
    energy          sensibleInternalEnergy;
}

Reading thermophysical properties

Reading field rho_foam 

Reading field rho_gas 

Calculating field g.h

Reading field mZero 

Reading field mOne 

Reading field mTwo 

Reading field mThree 

Reading field mFour 

Reading field mFive 

Reading field M0 

Reading field M1 

Reading field M2 

Reading field M3 

Reading field M4 

Reading field M5 

Reading fields weights and nodes 

End of "MomFields"

Reading field XW 

Creating field rho_foam*alpha2

Creating surface field of rho_foam*alpha2*U

Reading field XOH 


Creating source fields ScNonXOH for XOH: 

Creating first order coefficient for XOH source: 
Creating SuXOH and SpXOH for the second order term of in XOH source
Reading field wBA_g, blowing agent in gas 

Reading field wBA_l, blowing agent in liquid 

Reading field wCO2_l, CO2 in liquid 

Reading field wCO2_g, CO2 in gas 

Reading field g1_CO2, source of mOne due to the generation of CO2

Reading field g1_BA, source of mOne due to the evaporation of blowing     agent

Reading field cc1, a constant based on the growth rate due to    blowing agent

Selecting turbulence model type laminar
Creating field kinetic energy K

Courant Number mean: 0 max: 0

Starting time loop

initialFoamMass : (domainIntegrate((rho_foam*alpha.foam))+(((densityDimension*0.057)*1100)*domainIntegrate(alpha.foam))) [1 0 0 0 0 0 0] 0.011627
cellSource volAverage:all():
    total cells  = 800
    total volume = 0.0002



Courant Number mean: 0 max: 0
deltaT = 0.047619048
Time = 0.047619048

PIMPLE: iteration 1
MULES: Solving for alpha.gas
Liquid phase volume fraction = 0.95  Min(alpha1) = 0  Min(alpha2) = 0
diagonal:  Solving for rho, Initial residual = 0, Final residual = 0, No Iterations 0
nonePBiCG:  Solving for XW, Initial residual = 1, Final residual = 6.6428317e-06, No Iterations 1
nonePBiCG:  Solving for XOH, Initial residual = 1, Final residual = 3.1264334e-06, No Iterations 1
DILUPBiCG:  Solving for TS, Initial residual = 0.053582985, Final residual = 7.9871723e-10, No Iterations 6

Solving Moments Equations. 
nonePBiCG:  Solving for mZero, Initial residual = 4.6682836e-18, Final residual = 4.6682836e-18, No Iterations 0
nonePBiCG:  Solving for mOne, Initial residual = 7.6946725e-18, Final residual = 7.6946725e-18, No Iterations 0
nonePBiCG:  Solving for mTwo, Initial residual = 8.4077889e-25, Final residual = 8.4077889e-25, No Iterations 0
nonePBiCG:  Solving for mThree, Initial residual = 2.3093221e-42, Final residual = 2.3093221e-42, No Iterations 0
GAMG:  Solving for p_rgh, Initial residual = 0.59383021, Final residual = 0.64062083, No Iterations 1000
max(U) 1.4210855e-10
min(p_rgh) 100000
GAMGPCG:  Solving for p_rgh, Initial residual = 0.59383568, Final residual = 4.520484e-06, No Iterations 5
max(U) 8.6441255e-10
min(p_rgh) 100000
nonePBiCG:  Solving for wBA_l, Initial residual = 5.1998221e-12, Final residual = 5.1998221e-12, No Iterations 0
nonePBiCG:  Solving for wBA_g, Initial residual = 0, Final residual = 0, No Iterations 0
nonePBiCG:  Solving for wCO2_l, Initial residual = 1, Final residual = 2.561427e-11, No Iterations 1
nonePBiCG:  Solving for wCO2_g, Initial residual = 0, Final residual = 0, No Iterations 0

Mass of foam: domainIntegrate((alpha.foam*rho_foam)) [1 0 0 0 0 0 0] 0.010964203
ExecutionTime = 0.13 s


Courant Number mean: 4.392262e-09 max: 1.0827318e-08
deltaT = 0.047619048
Time = 0.095238095

PIMPLE: iteration 1
MULES: Solving for alpha.gas
Liquid phase volume fraction = 0.95  Min(alpha1) = 0  Min(alpha2) = 0
diagonal:  Solving for rho, Initial residual = 0, Final residual = 0, No Iterations 0
nonePBiCG:  Solving for XW, Initial residual = 0.9076161, Final residual = 5.8071311e-06, No Iterations 1
nonePBiCG:  Solving for XOH, Initial residual = 0.90587867, Final residual = 2.7087038e-06, No Iterations 1
DILUPBiCG:  Solving for TS, Initial residual = 0.042113954, Final residual = 5.7899352e-10, No Iterations 6

Solving Moments Equations. 
nonePBiCG:  Solving for mZero, Initial residual = 3.5616194e-11, Final residual = 3.5616194e-11, No Iterations 0
nonePBiCG:  Solving for mOne, Initial residual = 0.92918389, Final residual = 8.6287663e-20, No Iterations 2
nonePBiCG:  Solving for mTwo, Initial residual = 5.7987526e-06, Final residual = 1.1085159e-15, No Iterations 1
nonePBiCG:  Solving for mThree, Initial residual = 4.6231506e-24, Final residual = 4.6231506e-24, No Iterations 0
GAMG:  Solving for p_rgh, Initial residual = 0.67075906, Final residual = 0.36948622, No Iterations 1000
max(U) 8.5377766e-10
min(p_rgh) 100000
GAMGPCG:  Solving for p_rgh, Initial residual = 0.61949021, Final residual = 4.7853524e-06, No Iterations 5
max(U) 8.5353558e-10
min(p_rgh) 100000
nonePBiCG:  Solving for wBA_l, Initial residual = 3.6144535e-11, Final residual = 3.6144535e-11, No Iterations 0
nonePBiCG:  Solving for wBA_g, Initial residual = 0, Final residual = 0, No Iterations 0
nonePBiCG:  Solving for wCO2_l, Initial residual = 0.20465416, Final residual = 3.7185547e-11, No Iterations 1
nonePBiCG:  Solving for wCO2_g, Initial residual = 1, Final residual = 1.8269469e-10, No Iterations 1

Mass of foam: domainIntegrate((alpha.foam*rho_foam)) [1 0 0 0 0 0 0] 0.010964203
ExecutionTime = 0.22 s


Courant Number mean: 4.3919986e-09 max: 1.0426062e-08
deltaT = 0.047619048
Time = 0.14285714

PIMPLE: iteration 1
MULES: Solving for alpha.gas
Liquid phase volume fraction = 0.95  Min(alpha1) = 0  Min(alpha2) = -2.220446e-16
diagonal:  Solving for rho, Initial residual = 0, Final residual = 0, No Iterations 0
nonePBiCG:  Solving for XW, Initial residual = 0.83120439, Final residual = 5.2762423e-06, No Iterations 1
nonePBiCG:  Solving for XOH, Initial residual = 0.82836863, Final residual = 2.4436335e-06, No Iterations 1
DILUPBiCG:  Solving for TS, Initial residual = 0.032934741, Final residual = 5.8755041e-09, No Iterations 5

Solving Moments Equations. 
nonePBiCG:  Solving for mZero, Initial residual = 2.0481317e-11, Final residual = 2.0481317e-11, No Iterations 0
nonePBiCG:  Solving for mOne, Initial residual = 2.0481318e-11, Final residual = 2.0481318e-11, No Iterations 0
nonePBiCG:  Solving for mTwo, Initial residual = 4.5587504e-16, Final residual = 4.5587504e-16, No Iterations 0
nonePBiCG:  Solving for mThree, Initial residual = 2.4540651e-36, Final residual = 2.4540651e-36, No Iterations 0
GAMG:  Solving for p_rgh, Initial residual = 0.99988222, Final residual = 0.0055544739, No Iterations 8
max(U) 7.5017268e-05
min(p_rgh) 100000
GAMGPCG:  Solving for p_rgh, Initial residual = 0.0013291228, Final residual = 2.6365782e-06, No Iterations 3
max(U) 7.6812585e-05
min(p_rgh) 100000
nonePBiCG:  Solving for wBA_l, Initial residual = 0.00013783036, Final residual = 7.2176585e-08, No Iterations 1
nonePBiCG:  Solving for wBA_g, Initial residual = 0, Final residual = 0, No Iterations 0
nonePBiCG:  Solving for wCO2_l, Initial residual = 0.11655246, Final residual = 3.0521125e-05, No Iterations 1
nonePBiCG:  Solving for wCO2_g, Initial residual = 0.00013796172, Final residual = 7.2245271e-08, No Iterations 1

Mass of foam: domainIntegrate((alpha.foam*rho_foam)) [1 0 0 0 0 0 0] 0.010961332
ExecutionTime = 0.23 s


Courant Number mean: 0.00051082346 max: 0.00053076485
deltaT = 0.047619048
Time = 0.19047619

PIMPLE: iteration 1
MULES: Solving for alpha.gas
Liquid phase volume fraction = 0.9499869  Min(alpha1) = 0  Min(alpha2) = -2.220446e-16
diagonal:  Solving for rho, Initial residual = 0, Final residual = 0, No Iterations 0
nonePBiCG:  Solving for XW, Initial residual = 0.76683581, Final residual = 2.4862294e-05, No Iterations 1
nonePBiCG:  Solving for XOH, Initial residual = 0.76328815, Final residual = 2.2904232e-05, No Iterations 1
DILUPBiCG:  Solving for TS, Initial residual = 0.026235321, Final residual = 3.1038203e-09, No Iterations 5

Solving Moments Equations. 
nonePBiCG:  Solving for mZero, Initial residual = 6.8910423e-05, Final residual = 2.8334209e-11, No Iterations 2
nonePBiCG:  Solving for mOne, Initial residual = 6.8910423e-05, Final residual = 2.5363231e-11, No Iterations 2
nonePBiCG:  Solving for mTwo, Initial residual = 1.5341209e-09, Final residual = 8.0315967e-13, No Iterations 1
nonePBiCG:  Solving for mThree, Initial residual = 8.2584765e-30, Final residual = 8.2584765e-30, No Iterations 0
GAMG:  Solving for p_rgh, Initial residual = 0.015992392, Final residual = 8.5962451e-05, No Iterations 8
max(U) 6.1229521e-05
min(p_rgh) 100000
GAMGPCG:  Solving for p_rgh, Initial residual = 0.99986334, Final residual = 1.3413692e-06, No Iterations 6
max(U) 6.0674775e-05
min(p_rgh) 100000
nonePBiCG:  Solving for wBA_l, Initial residual = 6.8914595e-05, Final residual = 6.8914595e-05, No Iterations 0
nonePBiCG:  Solving for wBA_g, Initial residual = 0, Final residual = 0, No Iterations 0
nonePBiCG:  Solving for wCO2_l, Initial residual = 0.080659829, Final residual = 1.5937911e-05, No Iterations 1
nonePBiCG:  Solving for wCO2_g, Initial residual = 6.8914592e-05, Final residual = 6.8914592e-05, No Iterations 0

Mass of foam: domainIntegrate((alpha.foam*rho_foam)) [1 0 0 0 0 0 0] 0.010964204
ExecutionTime = 0.24 s


Courant Number mean: 0.00049995306 max: 0.00052937137
deltaT = 0.047619048
Time = 0.23809524

PIMPLE: iteration 1
MULES: Solving for alpha.gas
Liquid phase volume fraction = 0.94997875  Min(alpha1) = 0  Min(alpha2) = -4.4408921e-16
diagonal:  Solving for rho, Initial residual = 0, Final residual = 0, No Iterations 0
nonePBiCG:  Solving for XW, Initial residual = 0.71190078, Final residual = 2.1701708e-05, No Iterations 1
nonePBiCG:  Solving for XOH, Initial residual = 0.70788516, Final residual = 1.9259899e-05, No Iterations 1
DILUPBiCG:  Solving for TS, Initial residual = 0.021417944, Final residual = 2.6455198e-09, No Iterations 5

Solving Moments Equations. 
nonePBiCG:  Solving for mZero, Initial residual = 4.2934006e-05, Final residual = 1.2251974e-11, No Iterations 2
nonePBiCG:  Solving for mOne, Initial residual = 4.2934006e-05, Final residual = 1.2253189e-11, No Iterations 2
nonePBiCG:  Solving for mTwo, Initial residual = 9.5573714e-10, Final residual = 3.9140513e-13, No Iterations 1
nonePBiCG:  Solving for mThree, Initial residual = 5.1442526e-30, Final residual = 5.1442526e-30, No Iterations 0
GAMG:  Solving for p_rgh, Initial residual = 0.99986839, Final residual = 0.0052745219, No Iterations 8
max(U) 6.0256384e-05
min(p_rgh) 100000
GAMGPCG:  Solving for p_rgh, Initial residual = 0.99986822, Final residual = 1.685186e-06, No Iterations 6
max(U) 6.0045861e-05
min(p_rgh) 100000
nonePBiCG:  Solving for wBA_l, Initial residual = 4.2934771e-05, Final residual = 4.2934771e-05, No Iterations 0
nonePBiCG:  Solving for wBA_g, Initial residual = 0, Final residual = 0, No Iterations 0
nonePBiCG:  Solving for wCO2_l, Initial residual = 0.061624402, Final residual = 1.0863413e-05, No Iterations 1
nonePBiCG:  Solving for wCO2_g, Initial residual = 4.2926248e-05, Final residual = 4.2926248e-05, No Iterations 0

Mass of foam: domainIntegrate((alpha.foam*rho_foam)) [1 0 0 0 0 0 0] 0.010965993
ExecutionTime = 0.25 s


Courant Number mean: 0.00049534217 max: 0.00052924067
deltaT = 0.047619048
Time = 0.28571429

PIMPLE: iteration 1
MULES: Solving for alpha.gas
Liquid phase volume fraction = 0.94997247  Min(alpha1) = 0  Min(alpha2) = -4.4408921e-16
diagonal:  Solving for rho, Initial residual = 0, Final residual = 0, No Iterations 0
nonePBiCG:  Solving for XW, Initial residual = 0.66439849, Final residual = 2.0229727e-05, No Iterations 1
nonePBiCG:  Solving for XOH, Initial residual = 0.66007314, Final residual = 1.7910751e-05, No Iterations 1
DILUPBiCG:  Solving for TS, Initial residual = 0.017920208, Final residual = 2.6645618e-09, No Iterations 5

Solving Moments Equations. 
nonePBiCG:  Solving for mZero, Initial residual = 3.3037809e-05, Final residual = 1.2237595e-11, No Iterations 2
nonePBiCG:  Solving for mOne, Initial residual = 3.3037809e-05, Final residual = 1.2239728e-11, No Iterations 2
nonePBiCG:  Solving for mTwo, Initial residual = 7.3541494e-10, Final residual = 2.7878689e-13, No Iterations 1
nonePBiCG:  Solving for mThree, Initial residual = 3.9572194e-30, Final residual = 3.9572194e-30, No Iterations 0
GAMG:  Solving for p_rgh, Initial residual = 0.99986383, Final residual = 0.0052739669, No Iterations 8
max(U) 5.9470734e-05
min(p_rgh) 100000
GAMGPCG:  Solving for p_rgh, Initial residual = 0.99986449, Final residual = 2.0137705e-06, No Iterations 6
max(U) 5.9368903e-05
min(p_rgh) 100000
nonePBiCG:  Solving for wBA_l, Initial residual = 3.3032497e-05, Final residual = 3.3032497e-05, No Iterations 0
nonePBiCG:  Solving for wBA_g, Initial residual = 0, Final residual = 0, No Iterations 0
nonePBiCG:  Solving for wCO2_l, Initial residual = 0.04986451, Final residual = 8.2634854e-06, No Iterations 1
nonePBiCG:  Solving for wCO2_g, Initial residual = 3.3019974e-05, Final residual = 3.3019974e-05, No Iterations 0

Mass of foam: domainIntegrate((alpha.foam*rho_foam)) [1 0 0 0 0 0 0] 0.010967369
ExecutionTime = 0.26 s


Courant Number mean: 0.00049232188 max: 0.00052907094
deltaT = 0.047619048
Time = 0.33333333

PIMPLE: iteration 1
MULES: Solving for alpha.gas
Liquid phase volume fraction = 0.94996717  Min(alpha1) = 0  Min(alpha2) = -4.4408921e-16
diagonal:  Solving for rho, Initial residual = 0, Final residual = 0, No Iterations 0
nonePBiCG:  Solving for XW, Initial residual = 0.62290098, Final residual = 1.8940695e-05, No Iterations 1
nonePBiCG:  Solving for XOH, Initial residual = 0.61837159, Final residual = 1.6736774e-05, No Iterations 1
DILUPBiCG:  Solving for TS, Initial residual = 0.015303646, Final residual = 2.7899571e-09, No Iterations 5

Solving Moments Equations. 
nonePBiCG:  Solving for mZero, Initial residual = 2.7866653e-05, Final residual = 1.4853399e-11, No Iterations 2
nonePBiCG:  Solving for mOne, Initial residual = 2.7866653e-05, Final residual = 1.4857319e-11, No Iterations 2
nonePBiCG:  Solving for mTwo, Initial residual = 6.2029285e-10, Final residual = 2.259913e-13, No Iterations 1
nonePBiCG:  Solving for mThree, Initial residual = 3.3366011e-30, Final residual = 3.3366011e-30, No Iterations 0
GAMG:  Solving for p_rgh, Initial residual = 0.99986361, Final residual = 0.0052780855, No Iterations 8
max(U) 5.8773039e-05
min(p_rgh) 100000
GAMGPCG:  Solving for p_rgh, Initial residual = 0.99986334, Final residual = 2.3918076e-06, No Iterations 6
max(U) 5.8706012e-05
min(p_rgh) 100000
nonePBiCG:  Solving for wBA_l, Initial residual = 2.7855182e-05, Final residual = 2.7855182e-05, No Iterations 0
nonePBiCG:  Solving for wBA_g, Initial residual = 0, Final residual = 0, No Iterations 0
nonePBiCG:  Solving for wCO2_l, Initial residual = 0.041878273, Final residual = 6.6765758e-06, No Iterations 1
nonePBiCG:  Solving for wCO2_g, Initial residual = 2.7840448e-05, Final residual = 2.7840448e-05, No Iterations 0

Mass of foam: domainIntegrate((alpha.foam*rho_foam)) [1 0 0 0 0 0 0] 0.01096853
ExecutionTime = 0.26 s


Courant Number mean: 0.00048999427 max: 0.00052861198
deltaT = 0.047619048
Time = 0.38095238

PIMPLE: iteration 1
MULES: Solving for alpha.gas
Liquid phase volume fraction = 0.94996246  Min(alpha1) = 0  Min(alpha2) = -4.4408921e-16
diagonal:  Solving for rho, Initial residual = 0, Final residual = 0, No Iterations 0
nonePBiCG:  Solving for XW, Initial residual = 0.5863262, Final residual = 1.7794739e-05, No Iterations 1
nonePBiCG:  Solving for XOH, Initial residual = 0.58166483, Final residual = 1.5694446e-05, No Iterations 1
DILUPBiCG:  Solving for TS, Initial residual = 0.013334769, Final residual = 5.6869314e-09, No Iterations 5

Solving Moments Equations. 
nonePBiCG:  Solving for mZero, Initial residual = 2.4831187e-05, Final residual = 2.3982258e-11, No Iterations 2
nonePBiCG:  Solving for mOne, Initial residual = 2.4831187e-05, Final residual = 2.3993495e-11, No Iterations 2
nonePBiCG:  Solving for mTwo, Initial residual = 5.5271755e-10, Final residual = 1.964881e-13, No Iterations 1
nonePBiCG:  Solving for mThree, Initial residual = 2.9720698e-30, Final residual = 2.9720698e-30, No Iterations 0
GAMG:  Solving for p_rgh, Initial residual = 0.99985358, Final residual = 0.0052546181, No Iterations 8
max(U) 5.8080304e-05
min(p_rgh) 100000
GAMGPCG:  Solving for p_rgh, Initial residual = 0.99985412, Final residual = 2.6961845e-06, No Iterations 6
max(U) 5.8030808e-05
min(p_rgh) 100000
nonePBiCG:  Solving for wBA_l, Initial residual = 2.4814103e-05, Final residual = 2.4814103e-05, No Iterations 0
nonePBiCG:  Solving for wBA_g, Initial residual = 0, Final residual = 0, No Iterations 0
nonePBiCG:  Solving for wCO2_l, Initial residual = 0.036100817, Final residual = 5.6050849e-06, No Iterations 1
nonePBiCG:  Solving for wCO2_g, Initial residual = 2.4798107e-05, Final residual = 2.4798107e-05, No Iterations 0

Mass of foam: domainIntegrate((alpha.foam*rho_foam)) [1 0 0 0 0 0 0] 0.010969565
ExecutionTime = 0.28 s


Courant Number mean: 0.00048803577 max: 0.00052793859
deltaT = 0.047619048
Time = 0.42857143

PIMPLE: iteration 1
MULES: Solving for alpha.gas
Liquid phase volume fraction = 0.9499581  Min(alpha1) = 0  Min(alpha2) = -4.4408921e-16
diagonal:  Solving for rho, Initial residual = 0, Final residual = 0, No Iterations 0
nonePBiCG:  Solving for XW, Initial residual = 0.5538396, Final residual = 1.6770558e-05, No Iterations 1
nonePBiCG:  Solving for XOH, Initial residual = 0.54909619, Final residual = 1.4762666e-05, No Iterations 1
DILUPBiCG:  Solving for TS, Initial residual = 0.011830989, Final residual = 2.2188958e-09, No Iterations 5

Solving Moments Equations. 
nonePBiCG:  Solving for mZero, Initial residual = 2.2919208e-05, Final residual = 2.9487007e-15, No Iterations 3
nonePBiCG:  Solving for mOne, Initial residual = 2.2919208e-05, Final residual = 2.9487185e-15, No Iterations 3
nonePBiCG:  Solving for mTwo, Initial residual = 5.1015345e-10, Final residual = 1.7828743e-13, No Iterations 1
nonePBiCG:  Solving for mThree, Initial residual = 2.7422884e-30, Final residual = 2.7422884e-30, No Iterations 0
GAMG:  Solving for p_rgh, Initial residual = 0.99985977, Final residual = 0.0052634989, No Iterations 8
max(U) 5.7394156e-05
min(p_rgh) 100000
GAMGPCG:  Solving for p_rgh, Initial residual = 0.99986032, Final residual = 2.8649837e-06, No Iterations 6
max(U) 5.7354562e-05
min(p_rgh) 100000
nonePBiCG:  Solving for wBA_l, Initial residual = 2.2897091e-05, Final residual = 2.2897091e-05, No Iterations 0
nonePBiCG:  Solving for wBA_g, Initial residual = 0, Final residual = 0, No Iterations 0
nonePBiCG:  Solving for wCO2_l, Initial residual = 0.031727262, Final residual = 4.8321676e-06, No Iterations 1
nonePBiCG:  Solving for wCO2_g, Initial residual = 2.2880359e-05, Final residual = 2.2880359e-05, No Iterations 0

Mass of foam: domainIntegrate((alpha.foam*rho_foam)) [1 0 0 0 0 0 0] 0.01097052
ExecutionTime = 0.28 s


Courant Number mean: 0.00048629957 max: 0.00052788448
deltaT = 0.047619048
Time = 0.47619048

PIMPLE: iteration 1
MULES: Solving for alpha.gas
Liquid phase volume fraction = 0.94995399  Min(alpha1) = 0  Min(alpha2) = -4.4408921e-16
diagonal:  Solving for rho, Initial residual = 0, Final residual = 0, No Iterations 0
nonePBiCG:  Solving for XW, Initial residual = 0.52478672, Final residual = 1.5850912e-05, No Iterations 1
nonePBiCG:  Solving for XOH, Initial residual = 0.51999632, Final residual = 1.3933297e-05, No Iterations 1
DILUPBiCG:  Solving for TS, Initial residual = 0.010645981, Final residual = 1.6646345e-09, No Iterations 5

Solving Moments Equations. 
nonePBiCG:  Solving for mZero, Initial residual = 2.1653008e-05, Final residual = 3.3848087e-11, No Iterations 2
nonePBiCG:  Solving for mOne, Initial residual = 2.1653008e-05, Final residual = 3.3833663e-11, No Iterations 2
nonePBiCG:  Solving for mTwo, Initial residual = 4.819654e-10, Final residual = 1.6626101e-13, No Iterations 1
nonePBiCG:  Solving for mThree, Initial residual = 2.5899802e-30, Final residual = 2.5899802e-30, No Iterations 0
GAMG:  Solving for p_rgh, Initial residual = 0.99985634, Final residual = 0.0052483465, No Iterations 8
max(U) 5.6717288e-05
min(p_rgh) 100000
GAMGPCG:  Solving for p_rgh, Initial residual = 0.99985632, Final residual = 2.9601797e-06, No Iterations 6
max(U) 5.6683732e-05
min(p_rgh) 100000
nonePBiCG:  Solving for wBA_l, Initial residual = 2.1626354e-05, Final residual = 2.1626354e-05, No Iterations 0
nonePBiCG:  Solving for wBA_g, Initial residual = 0, Final residual = 0, No Iterations 0
nonePBiCG:  Solving for wCO2_l, Initial residual = 0.028301339, Final residual = 4.2479234e-06, No Iterations 1
nonePBiCG:  Solving for wCO2_g, Initial residual = 2.1609191e-05, Final residual = 2.1609191e-05, No Iterations 0

Mass of foam: domainIntegrate((alpha.foam*rho_foam)) [1 0 0 0 0 0 0] 0.010971422
ExecutionTime = 0.3 s


Courant Number mean: 0.00048470984 max: 0.0005278301
deltaT = 0.047619048
Time = 0.52380952

PIMPLE: iteration 1
MULES: Solving for alpha.gas
Liquid phase volume fraction = 0.94995004  Min(alpha1) = 0  Min(alpha2) = -4.4408921e-16
diagonal:  Solving for rho, Initial residual = 0, Final residual = 0, No Iterations 0
nonePBiCG:  Solving for XW, Initial residual = 0.49864675, Final residual = 1.5021434e-05, No Iterations 1
nonePBiCG:  Solving for XOH, Initial residual = 0.4938342, Final residual = 1.3293675e-05, No Iterations 1
DILUPBiCG:  Solving for TS, Initial residual = 0.0096958649, Final residual = 1.5222008e-09, No Iterations 5

Solving Moments Equations. 
nonePBiCG:  Solving for mZero, Initial residual = 2.0781587e-05, Final residual = 1.8205743e-11, No Iterations 2
nonePBiCG:  Solving for mOne, Initial residual = 2.0781587e-05, Final residual = 1.8203145e-11, No Iterations 2
nonePBiCG:  Solving for mTwo, Initial residual = 4.6256561e-10, Final residual = 1.5787716e-13, No Iterations 1
nonePBiCG:  Solving for mThree, Initial residual = 2.4850454e-30, Final residual = 2.4850454e-30, No Iterations 0
GAMG:  Solving for p_rgh, Initial residual = 0.99985562, Final residual = 0.0052636177, No Iterations 8
max(U) 5.6051769e-05
min(p_rgh) 100000
GAMGPCG:  Solving for p_rgh, Initial residual = 0.99985607, Final residual = 3.0177465e-06, No Iterations 6
max(U) 5.6022116e-05
min(p_rgh) 100000
nonePBiCG:  Solving for wBA_l, Initial residual = 2.0750802e-05, Final residual = 2.0750802e-05, No Iterations 0
nonePBiCG:  Solving for wBA_g, Initial residual = 0, Final residual = 0, No Iterations 0
nonePBiCG:  Solving for wCO2_l, Initial residual = 0.025545125, Final residual = 3.7906058e-06, No Iterations 1
nonePBiCG:  Solving for wCO2_g, Initial residual = 2.073339e-05, Final residual = 2.073339e-05, No Iterations 0

Mass of foam: domainIntegrate((alpha.foam*rho_foam)) [1 0 0 0 0 0 0] 0.010972288
ExecutionTime = 0.3 s


Courant Number mean: 0.00048322393 max: 0.00052772903
deltaT = 0.047619048
Time = 0.57142857

PIMPLE: iteration 1
MULES: Solving for alpha.gas
Liquid phase volume fraction = 0.94994621  Min(alpha1) = 0  Min(alpha2) = -4.4408921e-16
diagonal:  Solving for rho, Initial residual = 0, Final residual = 0, No Iterations 0
nonePBiCG:  Solving for XW, Initial residual = 0.47499982, Final residual = 1.4270216e-05, No Iterations 1
nonePBiCG:  Solving for XOH, Initial residual = 0.47018284, Final residual = 1.269344e-05, No Iterations 1
DILUPBiCG:  Solving for TS, Initial residual = 0.0089295969, Final residual = 1.3941107e-09, No Iterations 5

Solving Moments Equations. 
nonePBiCG:  Solving for mZero, Initial residual = 2.0162948e-05, Final residual = 1.3491947e-11, No Iterations 2
nonePBiCG:  Solving for mOne, Initial residual = 2.0162948e-05, Final residual = 1.3490992e-11, No Iterations 2
nonePBiCG:  Solving for mTwo, Initial residual = 4.4879298e-10, Final residual = 1.5176414e-13, No Iterations 1
nonePBiCG:  Solving for mThree, Initial residual = 2.410453e-30, Final residual = 2.410453e-30, No Iterations 0
GAMG:  Solving for p_rgh, Initial residual = 0.99986998, Final residual = 0.0052581587, No Iterations 8
max(U) 5.547675e-05
min(p_rgh) 100000
GAMGPCG:  Solving for p_rgh, Initial residual = 0.99987053, Final residual = 3.0550284e-06, No Iterations 6
max(U) 5.546473e-05
min(p_rgh) 100000
nonePBiCG:  Solving for wBA_l, Initial residual = 2.0128365e-05, Final residual = 2.0128365e-05, No Iterations 0
nonePBiCG:  Solving for wBA_g, Initial residual = 0, Final residual = 0, No Iterations 0
nonePBiCG:  Solving for wCO2_l, Initial residual = 0.023279677, Final residual = 3.4228127e-06, No Iterations 1
nonePBiCG:  Solving for wCO2_g, Initial residual = 2.0110815e-05, Final residual = 2.0110815e-05, No Iterations 0

Mass of foam: domainIntegrate((alpha.foam*rho_foam)) [1 0 0 0 0 0 0] 0.010973128
ExecutionTime = 0.31 s


Courant Number mean: 0.0004818162 max: 0.00052763019
deltaT = 0.047619048
Time = 0.61904762

PIMPLE: iteration 1
MULES: Solving for alpha.gas
Liquid phase volume fraction = 0.94994246  Min(alpha1) = 0  Min(alpha2) = -4.4408921e-16
diagonal:  Solving for rho, Initial residual = 0, Final residual = 0, No Iterations 0
nonePBiCG:  Solving for XW, Initial residual = 0.45350356, Final residual = 1.3587275e-05, No Iterations 1
nonePBiCG:  Solving for XOH, Initial residual = 0.44869479, Final residual = 1.2123854e-05, No Iterations 1
DILUPBiCG:  Solving for TS, Initial residual = 0.0083079203, Final residual = 1.2939583e-09, No Iterations 5

Solving Moments Equations. 
nonePBiCG:  Solving for mZero, Initial residual = 1.97122e-05, Final residual = 1.1205301e-11, No Iterations 2
nonePBiCG:  Solving for mOne, Initial residual = 1.97122e-05, Final residual = 1.1204836e-11, No Iterations 2
nonePBiCG:  Solving for mTwo, Initial residual = 4.3875771e-10, Final residual = 1.4712783e-13, No Iterations 1
nonePBiCG:  Solving for mThree, Initial residual = 2.3560196e-30, Final residual = 2.3560196e-30, No Iterations 0
GAMG:  Solving for p_rgh, Initial residual = 0.99986688, Final residual = 0.0052562112, No Iterations 8
max(U) 5.5445989e-05
min(p_rgh) 100000
GAMGPCG:  Solving for p_rgh, Initial residual = 0.99986739, Final residual = 3.0837675e-06, No Iterations 6
max(U) 5.5436438e-05
min(p_rgh) 100000
nonePBiCG:  Solving for wBA_l, Initial residual = 1.9674095e-05, Final residual = 1.9674095e-05, No Iterations 0
nonePBiCG:  Solving for wBA_g, Initial residual = 0, Final residual = 0, No Iterations 0
nonePBiCG:  Solving for wCO2_l, Initial residual = 0.021384582, Final residual = 3.120548e-06, No Iterations 1
nonePBiCG:  Solving for wCO2_g, Initial residual = 1.9656476e-05, Final residual = 1.9656476e-05, No Iterations 0

Mass of foam: domainIntegrate((alpha.foam*rho_foam)) [1 0 0 0 0 0 0] 0.010973949
ExecutionTime = 0.32 s


Courant Number mean: 0.0004804704 max: 0.00052759369
deltaT = 0.047619048
Time = 0.66666667

PIMPLE: iteration 1
MULES: Solving for alpha.gas
Liquid phase volume fraction = 0.94993878  Min(alpha1) = 0  Min(alpha2) = -4.4408921e-16
diagonal:  Solving for rho, Initial residual = 0, Final residual = 0, No Iterations 0
nonePBiCG:  Solving for XW, Initial residual = 0.43387588, Final residual = 1.2990571e-05, No Iterations 1
nonePBiCG:  Solving for XOH, Initial residual = 0.42908434, Final residual = 1.1588547e-05, No Iterations 1
DILUPBiCG:  Solving for TS, Initial residual = 0.0077971024, Final residual = 1.204988e-09, No Iterations 5

Solving Moments Equations. 
nonePBiCG:  Solving for mZero, Initial residual = 1.9376344e-05, Final residual = 9.8501124e-12, No Iterations 2
nonePBiCG:  Solving for mOne, Initial residual = 1.9376344e-05, Final residual = 9.8498465e-12, No Iterations 2
nonePBiCG:  Solving for mTwo, Initial residual = 4.3128002e-10, Final residual = 1.4348515e-13, No Iterations 1
nonePBiCG:  Solving for mThree, Initial residual = 2.3153869e-30, Final residual = 2.3153869e-30, No Iterations 0
GAMG:  Solving for p_rgh, Initial residual = 0.99985962, Final residual = 0.0052495591, No Iterations 8
max(U) 5.5421161e-05
min(p_rgh) 100000
GAMGPCG:  Solving for p_rgh, Initial residual = 0.99985972, Final residual = 3.0918197e-06, No Iterations 6
max(U) 5.5411509e-05
min(p_rgh) 100000
nonePBiCG:  Solving for wBA_l, Initial residual = 1.933495e-05, Final residual = 1.933495e-05, No Iterations 0
nonePBiCG:  Solving for wBA_g, Initial residual = 0, Final residual = 0, No Iterations 0
nonePBiCG:  Solving for wCO2_l, Initial residual = 0.019775838, Final residual = 2.8674569e-06, No Iterations 1
nonePBiCG:  Solving for wCO2_g, Initial residual = 1.9317307e-05, Final residual = 1.9317307e-05, No Iterations 0

Mass of foam: domainIntegrate((alpha.foam*rho_foam)) [1 0 0 0 0 0 0] 0.010974757
ExecutionTime = 0.33 s


Courant Number mean: 0.00047917577 max: 0.00052753134
deltaT = 0.047619048
Time = 0.71428571

PIMPLE: iteration 1
MULES: Solving for alpha.gas
Liquid phase volume fraction = 0.94993515  Min(alpha1) = 0  Min(alpha2) = -4.4408921e-16
diagonal:  Solving for rho, Initial residual = 0, Final residual = 0, No Iterations 0
nonePBiCG:  Solving for XW, Initial residual = 0.41588218, Final residual = 1.2467648e-05, No Iterations 1
nonePBiCG:  Solving for XOH, Initial residual = 0.41111426, Final residual = 1.1091024e-05, No Iterations 1
DILUPBiCG:  Solving for TS, Initial residual = 0.0073723227, Final residual = 1.133066e-09, No Iterations 5

Solving Moments Equations. 
nonePBiCG:  Solving for mZero, Initial residual = 1.9121118e-05, Final residual = 8.9504691e-12, No Iterations 2
nonePBiCG:  Solving for mOne, Initial residual = 1.9121118e-05, Final residual = 8.9503007e-12, No Iterations 2
nonePBiCG:  Solving for mTwo, Initial residual = 4.2559721e-10, Final residual = 1.4053054e-13, No Iterations 1
nonePBiCG:  Solving for mThree, Initial residual = 2.2844436e-30, Final residual = 2.2844436e-30, No Iterations 0
GAMG:  Solving for p_rgh, Initial residual = 0.99985692, Final residual = 0.0052553147, No Iterations 8
max(U) 5.538742e-05
min(p_rgh) 100000
GAMGPCG:  Solving for p_rgh, Initial residual = 0.99985689, Final residual = 3.0893515e-06, No Iterations 6
max(U) 5.5377686e-05
min(p_rgh) 100000
nonePBiCG:  Solving for wBA_l, Initial residual = 1.9076634e-05, Final residual = 1.9076634e-05, No Iterations 0
nonePBiCG:  Solving for wBA_g, Initial residual = 0, Final residual = 0, No Iterations 0
nonePBiCG:  Solving for wCO2_l, Initial residual = 0.018393061, Final residual = 2.6519358e-06, No Iterations 1
nonePBiCG:  Solving for wCO2_g, Initial residual = 1.9058994e-05, Final residual = 1.9058994e-05, No Iterations 0

Mass of foam: domainIntegrate((alpha.foam*rho_foam)) [1 0 0 0 0 0 0] 0.010975553
ExecutionTime = 0.34 s


Courant Number mean: 0.00047792489 max: 0.00052744344
deltaT = 0.047619048
Time = 0.76190476

PIMPLE: iteration 1
MULES: Solving for alpha.gas
Liquid phase volume fraction = 0.94993155  Min(alpha1) = 0  Min(alpha2) = -4.4408921e-16
diagonal:  Solving for rho, Initial residual = 0, Final residual = 0, No Iterations 0
nonePBiCG:  Solving for XW, Initial residual = 0.39932576, Final residual = 1.1988894e-05, No Iterations 1
nonePBiCG:  Solving for XOH, Initial residual = 0.39458594, Final residual = 1.0665102e-05, No Iterations 1
DILUPBiCG:  Solving for TS, Initial residual = 0.0070146297, Final residual = 1.056864e-09, No Iterations 5

Solving Moments Equations. 
nonePBiCG:  Solving for mZero, Initial residual = 1.8923719e-05, Final residual = 8.3071021e-12, No Iterations 2
nonePBiCG:  Solving for mOne, Initial residual = 1.8923719e-05, Final residual = 8.3069879e-12, No Iterations 2
nonePBiCG:  Solving for mTwo, Initial residual = 4.2120163e-10, Final residual = 1.3806463e-13, No Iterations 1
nonePBiCG:  Solving for mThree, Initial residual = 2.2604529e-30, Final residual = 2.2604529e-30, No Iterations 0
GAMG:  Solving for p_rgh, Initial residual = 0.99984895, Final residual = 0.0052642155, No Iterations 8
max(U) 5.5345251e-05
min(p_rgh) 100000
GAMGPCG:  Solving for p_rgh, Initial residual = 0.9998488, Final residual = 3.0884976e-06, No Iterations 6
max(U) 5.5335452e-05
min(p_rgh) 100000
nonePBiCG:  Solving for wBA_l, Initial residual = 1.8876318e-05, Final residual = 1.8876318e-05, No Iterations 0
nonePBiCG:  Solving for wBA_g, Initial residual = 0, Final residual = 0, No Iterations 0
nonePBiCG:  Solving for wCO2_l, Initial residual = 0.017191734, Final residual = 2.466907e-06, No Iterations 1
nonePBiCG:  Solving for wCO2_g, Initial residual = 1.8858698e-05, Final residual = 1.8858698e-05, No Iterations 0

Mass of foam: domainIntegrate((alpha.foam*rho_foam)) [1 0 0 0 0 0 0] 0.010976342
ExecutionTime = 0.35 s


Courant Number mean: 0.00047671245 max: 0.0005273303
deltaT = 0.047619048
Time = 0.80952381

PIMPLE: iteration 1
MULES: Solving for alpha.gas
Liquid phase volume fraction = 0.94992799  Min(alpha1) = 0  Min(alpha2) = -4.4408921e-16
diagonal:  Solving for rho, Initial residual = 0, Final residual = 0, No Iterations 0
nonePBiCG:  Solving for XW, Initial residual = 0.3840404, Final residual = 1.1556587e-05, No Iterations 1
nonePBiCG:  Solving for XOH, Initial residual = 0.37933172, Final residual = 1.0267342e-05, No Iterations 1
DILUPBiCG:  Solving for TS, Initial residual = 0.0067055669, Final residual = 9.8561395e-10, No Iterations 5

Solving Moments Equations. 
nonePBiCG:  Solving for mZero, Initial residual = 1.876859e-05, Final residual = 7.8217757e-12, No Iterations 2
nonePBiCG:  Solving for mOne, Initial residual = 1.876859e-05, Final residual = 7.8216938e-12, No Iterations 2
nonePBiCG:  Solving for mTwo, Initial residual = 4.1774699e-10, Final residual = 1.359539e-13, No Iterations 1
nonePBiCG:  Solving for mThree, Initial residual = 2.2415474e-30, Final residual = 2.2415474e-30, No Iterations 0
GAMG:  Solving for p_rgh, Initial residual = 0.99985374, Final residual = 0.0052654557, No Iterations 8
max(U) 5.529512e-05
min(p_rgh) 100000
GAMGPCG:  Solving for p_rgh, Initial residual = 0.99985372, Final residual = 3.0901629e-06, No Iterations 6
max(U) 5.5285268e-05
min(p_rgh) 100000
nonePBiCG:  Solving for wBA_l, Initial residual = 1.8718425e-05, Final residual = 1.8718425e-05, No Iterations 0
nonePBiCG:  Solving for wBA_g, Initial residual = 0, Final residual = 0, No Iterations 0
nonePBiCG:  Solving for wCO2_l, Initial residual = 0.016138313, Final residual = 2.3062984e-06, No Iterations 1
nonePBiCG:  Solving for wCO2_g, Initial residual = 1.8700835e-05, Final residual = 1.8700835e-05, No Iterations 0

Mass of foam: domainIntegrate((alpha.foam*rho_foam)) [1 0 0 0 0 0 0] 0.010977124
ExecutionTime = 0.36 s


Courant Number mean: 0.00047553446 max: 0.00052719223
deltaT = 0.047619048
Time = 0.85714286

PIMPLE: iteration 1
MULES: Solving for alpha.gas
Liquid phase volume fraction = 0.94992444  Min(alpha1) = 0  Min(alpha2) = -4.4408921e-16
diagonal:  Solving for rho, Initial residual = 0, Final residual = 0, No Iterations 0
nonePBiCG:  Solving for XW, Initial residual = 0.36988464, Final residual = 1.1161927e-05, No Iterations 1
nonePBiCG:  Solving for XOH, Initial residual = 0.36520911, Final residual = 9.8958693e-06, No Iterations 1
DILUPBiCG:  Solving for TS, Initial residual = 0.006436582, Final residual = 9.0999592e-10, No Iterations 5

Solving Moments Equations. 
nonePBiCG:  Solving for mZero, Initial residual = 1.8644889e-05, Final residual = 7.4404818e-12, No Iterations 2
nonePBiCG:  Solving for mOne, Initial residual = 1.8644889e-05, Final residual = 7.4404205e-12, No Iterations 2
nonePBiCG:  Solving for mTwo, Initial residual = 4.1499195e-10, Final residual = 1.3410692e-13, No Iterations 1
nonePBiCG:  Solving for mThree, Initial residual = 2.2264253e-30, Final residual = 2.2264253e-30, No Iterations 0
GAMG:  Solving for p_rgh, Initial residual = 0.99985052, Final residual = 0.0052567265, No Iterations 8
max(U) 5.5237471e-05
min(p_rgh) 100000
GAMGPCG:  Solving for p_rgh, Initial residual = 0.99985048, Final residual = 3.0820827e-06, No Iterations 6
max(U) 5.5227575e-05
min(p_rgh) 100000
nonePBiCG:  Solving for wBA_l, Initial residual = 1.8592096e-05, Final residual = 1.8592096e-05, No Iterations 0
nonePBiCG:  Solving for wBA_g, Initial residual = 0, Final residual = 0, No Iterations 0
nonePBiCG:  Solving for wCO2_l, Initial residual = 0.015207044, Final residual = 2.1655549e-06, No Iterations 1
nonePBiCG:  Solving for wCO2_g, Initial residual = 1.8584024e-05, Final residual = 1.8584024e-05, No Iterations 0

Mass of foam: domainIntegrate((alpha.foam*rho_foam)) [1 0 0 0 0 0 0] 0.010977901
ExecutionTime = 0.37 s


Courant Number mean: 0.00047438791 max: 0.00052702955
deltaT = 0.047619048
Time = 0.9047619

PIMPLE: iteration 1
MULES: Solving for alpha.gas
Liquid phase volume fraction = 0.94992092  Min(alpha1) = 0  Min(alpha2) = -4.4408921e-16
diagonal:  Solving for rho, Initial residual = 0, Final residual = 0, No Iterations 0
nonePBiCG:  Solving for XW, Initial residual = 0.35673734, Final residual = 1.079286e-05, No Iterations 1
nonePBiCG:  Solving for XOH, Initial residual = 0.35209618, Final residual = 9.550307e-06, No Iterations 1
DILUPBiCG:  Solving for TS, Initial residual = 0.0062022869, Final residual = 8.3418737e-10, No Iterations 5

Solving Moments Equations. 
nonePBiCG:  Solving for mZero, Initial residual = 1.8544916e-05, Final residual = 7.1311149e-12, No Iterations 2
nonePBiCG:  Solving for mOne, Initial residual = 1.8544916e-05, Final residual = 7.1310675e-12, No Iterations 2
nonePBiCG:  Solving for mTwo, Initial residual = 4.127651e-10, Final residual = 1.3245987e-13, No Iterations 1
nonePBiCG:  Solving for mThree, Initial residual = 2.214162e-30, Final residual = 2.214162e-30, No Iterations 0
GAMG:  Solving for p_rgh, Initial residual = 0.99985087, Final residual = 0.0052647678, No Iterations 8
max(U) 5.5184487e-05
min(p_rgh) 100000
GAMGPCG:  Solving for p_rgh, Initial residual = 0.99985106, Final residual = 3.0728231e-06, No Iterations 6
max(U) 5.5183176e-05
min(p_rgh) 100000
nonePBiCG:  Solving for wBA_l, Initial residual = 1.8489618e-05, Final residual = 1.8489618e-05, No Iterations 0
nonePBiCG:  Solving for wBA_g, Initial residual = 0, Final residual = 0, No Iterations 0
nonePBiCG:  Solving for wCO2_l, Initial residual = 0.014377827, Final residual = 2.0411917e-06, No Iterations 1
nonePBiCG:  Solving for wCO2_g, Initial residual = 1.8501049e-05, Final residual = 1.8501049e-05, No Iterations 0

Mass of foam: domainIntegrate((alpha.foam*rho_foam)) [1 0 0 0 0 0 0] 0.010978673
ExecutionTime = 0.38 s


Courant Number mean: 0.00047327038 max: 0.0005268426
deltaT = 0.047619048
Time = 0.95238095

PIMPLE: iteration 1
MULES: Solving for alpha.gas
Liquid phase volume fraction = 0.94991741  Min(alpha1) = 0  Min(alpha2) = -4.4408921e-16
diagonal:  Solving for rho, Initial residual = 0, Final residual = 0, No Iterations 0
nonePBiCG:  Solving for XW, Initial residual = 0.34337206, Final residual = 1.0413369e-05, No Iterations 1
nonePBiCG:  Solving for XOH, Initial residual = 0.33423617, Final residual = 9.0736254e-06, No Iterations 1
DILUPBiCG:  Solving for TS, Initial residual = 0.0059974846, Final residual = 7.5939042e-10, No Iterations 5

Solving Moments Equations. 
nonePBiCG:  Solving for mZero, Initial residual = 1.8463112e-05, Final residual = 6.8734335e-12, No Iterations 2
nonePBiCG:  Solving for mOne, Initial residual = 1.8463112e-05, Final residual = 6.8733959e-12, No Iterations 2
nonePBiCG:  Solving for mTwo, Initial residual = 4.1094268e-10, Final residual = 1.3096742e-13, No Iterations 1
nonePBiCG:  Solving for mThree, Initial residual = 2.2040897e-30, Final residual = 2.2040897e-30, No Iterations 0
GAMG:  Solving for p_rgh, Initial residual = 0.99987211, Final residual = 0.0052821626, No Iterations 8
max(U) 5.5179699e-05
min(p_rgh) 100000
GAMGPCG:  Solving for p_rgh, Initial residual = 0.99987169, Final residual = 3.0625082e-06, No Iterations 6
max(U) 5.5178211e-05
min(p_rgh) 100000
nonePBiCG:  Solving for wBA_l, Initial residual = 1.8405419e-05, Final residual = 1.8405419e-05, No Iterations 0
nonePBiCG:  Solving for wBA_g, Initial residual = 0, Final residual = 0, No Iterations 0
nonePBiCG:  Solving for wCO2_l, Initial residual = 0.013634743, Final residual = 1.9304963e-06, No Iterations 1
nonePBiCG:  Solving for wCO2_g, Initial residual = 1.8431008e-05, Final residual = 1.8431008e-05, No Iterations 0

Mass of foam: domainIntegrate((alpha.foam*rho_foam)) [1 0 0 0 0 0 0] 0.010979442
ExecutionTime = 0.39 s


Courant Number mean: 0.00047217988 max: 0.0005266317
deltaT = 0.047619048
Time = 1

PIMPLE: iteration 1
MULES: Solving for alpha.gas
Liquid phase volume fraction = 0.94991392  Min(alpha1) = 0  Min(alpha2) = -4.4408921e-16
diagonal:  Solving for rho, Initial residual = 0, Final residual = 0, No Iterations 0
nonePBiCG:  Solving for XW, Initial residual = 0.32157501, Final residual = 9.7742791e-06, No Iterations 1
nonePBiCG:  Solving for XOH, Initial residual = 0.3128857, Final residual = 8.4999953e-06, No Iterations 1
DILUPBiCG:  Solving for TS, Initial residual = 0.0058169167, Final residual = 6.9058401e-10, No Iterations 5

Solving Moments Equations. 
nonePBiCG:  Solving for mZero, Initial residual = 1.8395399e-05, Final residual = 6.6540766e-12, No Iterations 2
nonePBiCG:  Solving for mOne, Initial residual = 1.8395399e-05, Final residual = 6.6540461e-12, No Iterations 2
nonePBiCG:  Solving for mTwo, Initial residual = 4.0943393e-10, Final residual = 1.2959687e-13, No Iterations 1
nonePBiCG:  Solving for mThree, Initial residual = 2.1957184e-30, Final residual = 2.1957184e-30, No Iterations 0
GAMG:  Solving for p_rgh, Initial residual = 0.9998654, Final residual = 0.0052726629, No Iterations 8
max(U) 5.5173288e-05
min(p_rgh) 100000
GAMGPCG:  Solving for p_rgh, Initial residual = 0.99986544, Final residual = 3.0490558e-06, No Iterations 6
max(U) 5.5171626e-05
min(p_rgh) 100000
nonePBiCG:  Solving for wBA_l, Initial residual = 1.8335413e-05, Final residual = 1.8335413e-05, No Iterations 0
nonePBiCG:  Solving for wBA_g, Initial residual = 0, Final residual = 0, No Iterations 0
nonePBiCG:  Solving for wCO2_l, Initial residual = 0.012965023, Final residual = 1.8313255e-06, No Iterations 1
nonePBiCG:  Solving for wCO2_g, Initial residual = 1.8371317e-05, Final residual = 1.8371317e-05, No Iterations 0

Mass of foam: domainIntegrate((alpha.foam*rho_foam)) [1 0 0 0 0 0 0] 0.010980209
ExecutionTime = 0.41 s


cellSource volAverage output:
    volAverage() of alpha.gas = 0.94991392
    volAverage() of mZero = 5.0086083e+11
    volAverage() of mOne = 1.3404842e-05
    volAverage() of rho_foam = 1096.4114
    volAverage() of rho = 56.040941

Courant Number mean: 0.00047111477 max: 0.00052639719
deltaT = 0.047619048
Time = 1.047619

PIMPLE: iteration 1
MULES: Solving for alpha.gas
Liquid phase volume fraction = 0.94991043  Min(alpha1) = 0  Min(alpha2) = -4.4408921e-16
diagonal:  Solving for rho, Initial residual = 0, Final residual = 0, No Iterations 0
nonePBiCG:  Solving for XW, Initial residual = 0.30221582, Final residual = 9.205263e-06, No Iterations 1
nonePBiCG:  Solving for XOH, Initial residual = 0.29409157, Final residual = 7.9938623e-06, No Iterations 1
DILUPBiCG:  Solving for TS, Initial residual = 0.0056564165, Final residual = 6.3463347e-10, No Iterations 5

Solving Moments Equations. 
nonePBiCG:  Solving for mZero, Initial residual = 1.8338746e-05, Final residual = 6.4639723e-12, No Iterations 2
nonePBiCG:  Solving for mOne, Initial residual = 1.8338746e-05, Final residual = 6.463947e-12, No Iterations 2
nonePBiCG:  Solving for mTwo, Initial residual = 4.0817139e-10, Final residual = 1.2832426e-13, No Iterations 1
nonePBiCG:  Solving for mThree, Initial residual = 2.1886837e-30, Final residual = 2.1886837e-30, No Iterations 0
GAMG:  Solving for p_rgh, Initial residual = 0.99986249, Final residual = 0.0052650651, No Iterations 8
max(U) 5.5165174e-05
min(p_rgh) 100000
GAMGPCG:  Solving for p_rgh, Initial residual = 0.99986196, Final residual = 3.0357582e-06, No Iterations 6
max(U) 5.5163341e-05
min(p_rgh) 100000
nonePBiCG:  Solving for wBA_l, Initial residual = 1.8276561e-05, Final residual = 1.8276561e-05, No Iterations 0
nonePBiCG:  Solving for wBA_g, Initial residual = 0, Final residual = 0, No Iterations 0
nonePBiCG:  Solving for wCO2_l, Initial residual = 0.012358303, Final residual = 1.7419633e-06, No Iterations 1
nonePBiCG:  Solving for wCO2_g, Initial residual = 1.831999e-05, Final residual = 1.831999e-05, No Iterations 0

Mass of foam: domainIntegrate((alpha.foam*rho_foam)) [1 0 0 0 0 0 0] 0.010980973
ExecutionTime = 0.43 s


Courant Number mean: 0.00047007362 max: 0.00052619727
deltaT = 0.047619048
Time = 1.0952381

PIMPLE: iteration 1
MULES: Solving for alpha.gas
Liquid phase volume fraction = 0.94990696  Min(alpha1) = 0  Min(alpha2) = -4.4408921e-16
diagonal:  Solving for rho, Initial residual = 0, Final residual = 0, No Iterations 0
nonePBiCG:  Solving for XW, Initial residual = 0.28505626, Final residual = 8.70032e-06, No Iterations 1
nonePBiCG:  Solving for XOH, Initial residual = 0.27742028, Final residual = 7.5443212e-06, No Iterations 1
DILUPBiCG:  Solving for TS, Initial residual = 0.0055126562, Final residual = 6.0015078e-10, No Iterations 5

Solving Moments Equations. 
nonePBiCG:  Solving for mZero, Initial residual = 1.8290872e-05, Final residual = 6.2975818e-12, No Iterations 2
nonePBiCG:  Solving for mOne, Initial residual = 1.8290872e-05, Final residual = 6.2975606e-12, No Iterations 2
nonePBiCG:  Solving for mTwo, Initial residual = 4.0710426e-10, Final residual = 1.2715526e-13, No Iterations 1
nonePBiCG:  Solving for mThree, Initial residual = 2.1827113e-30, Final residual = 2.1827113e-30, No Iterations 0
GAMG:  Solving for p_rgh, Initial residual = 0.99985985, Final residual = 0.0052690197, No Iterations 8
max(U) 5.5161514e-05
min(p_rgh) 100000
GAMGPCG:  Solving for p_rgh, Initial residual = 0.99986038, Final residual = 3.0223312e-06, No Iterations 6
max(U) 5.5161434e-05
min(p_rgh) 100000
nonePBiCG:  Solving for wBA_l, Initial residual = 1.8226573e-05, Final residual = 1.8226573e-05, No Iterations 0
nonePBiCG:  Solving for wBA_g, Initial residual = 0, Final residual = 0, No Iterations 0
nonePBiCG:  Solving for wCO2_l, Initial residual = 0.011806085, Final residual = 1.661019e-06, No Iterations 1
nonePBiCG:  Solving for wCO2_g, Initial residual = 1.8275488e-05, Final residual = 1.8275488e-05, No Iterations 0

Mass of foam: domainIntegrate((alpha.foam*rho_foam)) [1 0 0 0 0 0 0] 0.010981735
ExecutionTime = 0.44 s


Courant Number mean: 0.00046905519 max: 0.00052613454
deltaT = 0.047619048
Time = 1.1428571

PIMPLE: iteration 1
MULES: Solving for alpha.gas
Liquid phase volume fraction = 0.94990349  Min(alpha1) = 0  Min(alpha2) = -4.4408921e-16
diagonal:  Solving for rho, Initial residual = 0, Final residual = 0, No Iterations 0
nonePBiCG:  Solving for XW, Initial residual = 0.26974141, Final residual = 8.2492725e-06, No Iterations 1
nonePBiCG:  Solving for XOH, Initial residual = 0.26253114, Final residual = 7.1424369e-06, No Iterations 1
DILUPBiCG:  Solving for TS, Initial residual = 0.0053829593, Final residual = 6.1735155e-10, No Iterations 5

Solving Moments Equations. 
nonePBiCG:  Solving for mZero, Initial residual = 1.8250037e-05, Final residual = 6.1491801e-12, No Iterations 2
nonePBiCG:  Solving for mOne, Initial residual = 1.8250037e-05, Final residual = 6.149162e-12, No Iterations 2
nonePBiCG:  Solving for mTwo, Initial residual = 4.0619384e-10, Final residual = 1.2607453e-13, No Iterations 1
nonePBiCG:  Solving for mThree, Initial residual = 2.1775919e-30, Final residual = 2.1775919e-30, No Iterations 0
GAMG:  Solving for p_rgh, Initial residual = 0.99987548, Final residual = 0.0052724234, No Iterations 8
max(U) 5.516097e-05
min(p_rgh) 100000
GAMGPCG:  Solving for p_rgh, Initial residual = 0.99987499, Final residual = 3.0101791e-06, No Iterations 6
max(U) 5.5160913e-05
min(p_rgh) 100000
nonePBiCG:  Solving for wBA_l, Initial residual = 1.8185328e-05, Final residual = 1.8185328e-05, No Iterations 0
nonePBiCG:  Solving for wBA_g, Initial residual = 0, Final residual = 0, No Iterations 0
nonePBiCG:  Solving for wCO2_l, Initial residual = 0.011301334, Final residual = 1.5873537e-06, No Iterations 1
nonePBiCG:  Solving for wCO2_g, Initial residual = 1.8236604e-05, Final residual = 1.8236604e-05, No Iterations 0

Mass of foam: domainIntegrate((alpha.foam*rho_foam)) [1 0 0 0 0 0 0] 0.010982495
ExecutionTime = 0.45 s


Courant Number mean: 0.00046805837 max: 0.00052608663
deltaT = 0.047619048
Time = 1.1904762

PIMPLE: iteration 1
MULES: Solving for alpha.gas
Liquid phase volume fraction = 0.94990003  Min(alpha1) = 0  Min(alpha2) = -4.4408921e-16
diagonal:  Solving for rho, Initial residual = 0, Final residual = 0, No Iterations 0
nonePBiCG:  Solving for XW, Initial residual = 0.25598883, Final residual = 7.8439859e-06, No Iterations 1
nonePBiCG:  Solving for XOH, Initial residual = 0.24915268, Final residual = 6.7810577e-06, No Iterations 1
DILUPBiCG:  Solving for TS, Initial residual = 0.005265158, Final residual = 1.0514793e-09, No Iterations 5

Solving Moments Equations. 
nonePBiCG:  Solving for mZero, Initial residual = 1.8214903e-05, Final residual = 6.0153058e-12, No Iterations 2
nonePBiCG:  Solving for mOne, Initial residual = 1.8214903e-05, Final residual = 6.0152901e-12, No Iterations 2
nonePBiCG:  Solving for mTwo, Initial residual = 4.0541031e-10, Final residual = 1.2505113e-13, No Iterations 1
nonePBiCG:  Solving for mThree, Initial residual = 2.1731645e-30, Final residual = 2.1731645e-30, No Iterations 0
GAMG:  Solving for p_rgh, Initial residual = 0.99985446, Final residual = 0.0052805005, No Iterations 8
max(U) 5.51608e-05
min(p_rgh) 100000
GAMGPCG:  Solving for p_rgh, Initial residual = 0.9998544, Final residual = 2.9985128e-06, No Iterations 6
max(U) 5.5160798e-05
min(p_rgh) 100000
nonePBiCG:  Solving for wBA_l, Initial residual = 1.8150749e-05, Final residual = 1.8150749e-05, No Iterations 0
nonePBiCG:  Solving for wBA_g, Initial residual = 0, Final residual = 0, No Iterations 0
nonePBiCG:  Solving for wCO2_l, Initial residual = 0.010838176, Final residual = 1.5200254e-06, No Iterations 1
nonePBiCG:  Solving for wCO2_g, Initial residual = 1.8202382e-05, Final residual = 1.8202382e-05, No Iterations 0

Mass of foam: domainIntegrate((alpha.foam*rho_foam)) [1 0 0 0 0 0 0] 0.010983254
ExecutionTime = 0.45 s


Courant Number mean: 0.00046708216 max: 0.00052606154
deltaT = 0.047619048
Time = 1.2380952

PIMPLE: iteration 1
MULES: Solving for alpha.gas
Liquid phase volume fraction = 0.94989657  Min(alpha1) = 0  Min(alpha2) = -4.4408921e-16
diagonal:  Solving for rho, Initial residual = 0, Final residual = 0, No Iterations 0
nonePBiCG:  Solving for XW, Initial residual = 0.24357094, Final residual = 7.4778794e-06, No Iterations 1
nonePBiCG:  Solving for XOH, Initial residual = 0.23706593, Final residual = 6.4543906e-06, No Iterations 1
DILUPBiCG:  Solving for TS, Initial residual = 0.005157485, Final residual = 4.5641232e-10, No Iterations 5

Solving Moments Equations. 
nonePBiCG:  Solving for mZero, Initial residual = 1.8184428e-05, Final residual = 5.8933458e-12, No Iterations 2
nonePBiCG:  Solving for mOne, Initial residual = 1.8184428e-05, Final residual = 5.8933321e-12, No Iterations 2
nonePBiCG:  Solving for mTwo, Initial residual = 4.0473049e-10, Final residual = 1.2407701e-13, No Iterations 1
nonePBiCG:  Solving for mThree, Initial residual = 2.1693034e-30, Final residual = 2.1693034e-30, No Iterations 0
GAMG:  Solving for p_rgh, Initial residual = 0.99986835, Final residual = 0.0052835517, No Iterations 8
max(U) 5.516083e-05
min(p_rgh) 100000
GAMGPCG:  Solving for p_rgh, Initial residual = 0.999867, Final residual = 2.9860981e-06, No Iterations 6
max(U) 5.5160829e-05
min(p_rgh) 100000
nonePBiCG:  Solving for wBA_l, Initial residual = 1.8120408e-05, Final residual = 1.8120408e-05, No Iterations 0
nonePBiCG:  Solving for wBA_g, Initial residual = 0, Final residual = 0, No Iterations 0
nonePBiCG:  Solving for wCO2_l, Initial residual = 0.01041167, Final residual = 1.4582483e-06, No Iterations 1
nonePBiCG:  Solving for wCO2_g, Initial residual = 1.8172061e-05, Final residual = 1.8172061e-05, No Iterations 0

Mass of foam: domainIntegrate((alpha.foam*rho_foam)) [1 0 0 0 0 0 0] 0.010984012
ExecutionTime = 0.47 s


Courant Number mean: 0.00046612564 max: 0.00052603191
deltaT = 0.047619048
Time = 1.2857143

PIMPLE: iteration 1
MULES: Solving for alpha.gas
Liquid phase volume fraction = 0.94989312  Min(alpha1) = 0  Min(alpha2) = -4.4408921e-16
diagonal:  Solving for rho, Initial residual = 0, Final residual = 0, No Iterations 0
nonePBiCG:  Solving for XW, Initial residual = 0.23230236, Final residual = 7.1455609e-06, No Iterations 1
nonePBiCG:  Solving for XOH, Initial residual = 0.2260923, Final residual = 6.1576821e-06, No Iterations 1
DILUPBiCG:  Solving for TS, Initial residual = 0.0050584907, Final residual = 2.7579219e-10, No Iterations 5

Solving Moments Equations. 
nonePBiCG:  Solving for mZero, Initial residual = 1.8157793e-05, Final residual = 5.7812938e-12, No Iterations 2
nonePBiCG:  Solving for mOne, Initial residual = 1.8157793e-05, Final residual = 5.7812818e-12, No Iterations 2
nonePBiCG:  Solving for mTwo, Initial residual = 4.0413615e-10, Final residual = 1.2314587e-13, No Iterations 1
nonePBiCG:  Solving for mThree, Initial residual = 2.16591e-30, Final residual = 2.16591e-30, No Iterations 0
GAMG:  Solving for p_rgh, Initial residual = 0.99985849, Final residual = 0.00527665, No Iterations 8
max(U) 5.5160715e-05
min(p_rgh) 100000
GAMGPCG:  Solving for p_rgh, Initial residual = 0.99985891, Final residual = 2.9746055e-06, No Iterations 6
max(U) 5.5160714e-05
min(p_rgh) 100000
nonePBiCG:  Solving for wBA_l, Initial residual = 1.8093449e-05, Final residual = 1.8093449e-05, No Iterations 0
nonePBiCG:  Solving for wBA_g, Initial residual = 0, Final residual = 0, No Iterations 0
nonePBiCG:  Solving for wCO2_l, Initial residual = 0.010017626, Final residual = 1.4013618e-06, No Iterations 1
nonePBiCG:  Solving for wCO2_g, Initial residual = 1.8145026e-05, Final residual = 1.8145026e-05, No Iterations 0

Mass of foam: domainIntegrate((alpha.foam*rho_foam)) [1 0 0 0 0 0 0] 0.010984768
ExecutionTime = 0.47 s


Courant Number mean: 0.00046518798 max: 0.00052599751
deltaT = 0.047619048
Time = 1.3333333

PIMPLE: iteration 1
MULES: Solving for alpha.gas
Liquid phase volume fraction = 0.94988968  Min(alpha1) = 0  Min(alpha2) = -4.4408921e-16
diagonal:  Solving for rho, Initial residual = 0, Final residual = 0, No Iterations 0
nonePBiCG:  Solving for XW, Initial residual = 0.22203049, Final residual = 6.84257e-06, No Iterations 1
nonePBiCG:  Solving for XOH, Initial residual = 0.2160847, Final residual = 5.8869951e-06, No Iterations 1
DILUPBiCG:  Solving for TS, Initial residual = 0.0050026086, Final residual = 7.5647025e-09, No Iterations 4

Solving Moments Equations. 
nonePBiCG:  Solving for mZero, Initial residual = 1.8134349e-05, Final residual = 5.6775863e-12, No Iterations 2
nonePBiCG:  Solving for mOne, Initial residual = 1.8134349e-05, Final residual = 5.6775756e-12, No Iterations 2
nonePBiCG:  Solving for mTwo, Initial residual = 4.0361283e-10, Final residual = 1.2225268e-13, No Iterations 1
nonePBiCG:  Solving for mThree, Initial residual = 2.162906e-30, Final residual = 2.162906e-30, No Iterations 0
GAMG:  Solving for p_rgh, Initial residual = 0.99986024, Final residual = 0.0052861255, No Iterations 8
max(U) 5.5160603e-05
min(p_rgh) 100000
GAMGPCG:  Solving for p_rgh, Initial residual = 0.99986031, Final residual = 2.9653033e-06, No Iterations 6
max(U) 5.5160599e-05
min(p_rgh) 100000
nonePBiCG:  Solving for wBA_l, Initial residual = 1.8069273e-05, Final residual = 1.8069273e-05, No Iterations 0
nonePBiCG:  Solving for wBA_g, Initial residual = 0, Final residual = 0, No Iterations 0
nonePBiCG:  Solving for wCO2_l, Initial residual = 0.0096524709, Final residual = 1.348806e-06, No Iterations 1
nonePBiCG:  Solving for wCO2_g, Initial residual = 1.812078e-05, Final residual = 1.812078e-05, No Iterations 0

Mass of foam: domainIntegrate((alpha.foam*rho_foam)) [1 0 0 0 0 0 0] 0.010985524
ExecutionTime = 0.48 s


Courant Number mean: 0.00046426839 max: 0.00052595814
deltaT = 0.047619048
Time = 1.3809524

PIMPLE: iteration 1
MULES: Solving for alpha.gas
Liquid phase volume fraction = 0.94988624  Min(alpha1) = 0  Min(alpha2) = -4.4408921e-16
diagonal:  Solving for rho, Initial residual = 0, Final residual = 0, No Iterations 0
nonePBiCG:  Solving for XW, Initial residual = 0.21262863, Final residual = 6.5652439e-06, No Iterations 1
nonePBiCG:  Solving for XOH, Initial residual = 0.20692085, Final residual = 5.639099e-06, No Iterations 1
DILUPBiCG:  Solving for TS, Initial residual = 0.004949187, Final residual = 8.3136341e-09, No Iterations 4

Solving Moments Equations. 
nonePBiCG:  Solving for mZero, Initial residual = 1.8113576e-05, Final residual = 5.5809881e-12, No Iterations 2
nonePBiCG:  Solving for mOne, Initial residual = 1.8113576e-05, Final residual = 5.5809785e-12, No Iterations 2
nonePBiCG:  Solving for mTwo, Initial residual = 4.0314898e-10, Final residual = 1.2139343e-13, No Iterations 1
nonePBiCG:  Solving for mThree, Initial residual = 2.1602287e-30, Final residual = 2.1602287e-30, No Iterations 0
GAMG:  Solving for p_rgh, Initial residual = 0.99983804, Final residual = 0.0052735868, No Iterations 8
max(U) 5.516049e-05
min(p_rgh) 100000
GAMGPCG:  Solving for p_rgh, Initial residual = 0.99983813, Final residual = 2.9599158e-06, No Iterations 6
max(U) 5.5160488e-05
min(p_rgh) 100000
nonePBiCG:  Solving for wBA_l, Initial residual = 1.8047473e-05, Final residual = 1.8047473e-05, No Iterations 0
nonePBiCG:  Solving for wBA_g, Initial residual = 0, Final residual = 0, No Iterations 0
nonePBiCG:  Solving for wCO2_l, Initial residual = 0.0093131377, Final residual = 1.3001037e-06, No Iterations 1
nonePBiCG:  Solving for wCO2_g, Initial residual = 1.8098917e-05, Final residual = 1.8098917e-05, No Iterations 0

Mass of foam: domainIntegrate((alpha.foam*rho_foam)) [1 0 0 0 0 0 0] 0.010986278
ExecutionTime = 0.49 s


Courant Number mean: 0.00046336615 max: 0.0005259136
deltaT = 0.047619048
Time = 1.4285714

PIMPLE: iteration 1
MULES: Solving for alpha.gas
Liquid phase volume fraction = 0.9498828  Min(alpha1) = 0  Min(alpha2) = -4.4408921e-16
diagonal:  Solving for rho, Initial residual = 0, Final residual = 0, No Iterations 0
nonePBiCG:  Solving for XW, Initial residual = 0.20399071, Final residual = 6.3104803e-06, No Iterations 1
nonePBiCG:  Solving for XOH, Initial residual = 0.19849829, Final residual = 5.4112521e-06, No Iterations 1
DILUPBiCG:  Solving for TS, Initial residual = 0.0048961617, Final residual = 3.1084431e-10, No Iterations 5

Solving Moments Equations. 
nonePBiCG:  Solving for mZero, Initial residual = 1.8095056e-05, Final residual = 5.4905112e-12, No Iterations 2
nonePBiCG:  Solving for mOne, Initial residual = 1.8095056e-05, Final residual = 5.4905026e-12, No Iterations 2
nonePBiCG:  Solving for mTwo, Initial residual = 4.027353e-10, Final residual = 1.2056482e-13, No Iterations 1
nonePBiCG:  Solving for mThree, Initial residual = 2.1578276e-30, Final residual = 2.1578276e-30, No Iterations 0
GAMG:  Solving for p_rgh, Initial residual = 0.99985425, Final residual = 0.0052807994, No Iterations 8
max(U) 5.5160523e-05
min(p_rgh) 100000
GAMGPCG:  Solving for p_rgh, Initial residual = 0.99985432, Final residual = 2.9595746e-06, No Iterations 6
max(U) 5.5160523e-05
min(p_rgh) 100000
nonePBiCG:  Solving for wBA_l, Initial residual = 1.8027716e-05, Final residual = 1.8027716e-05, No Iterations 0
nonePBiCG:  Solving for wBA_g, Initial residual = 0, Final residual = 0, No Iterations 0
nonePBiCG:  Solving for wCO2_l, Initial residual = 0.0089969787, Final residual = 1.2548454e-06, No Iterations 1
nonePBiCG:  Solving for wCO2_g, Initial residual = 1.80791e-05, Final residual = 1.80791e-05, No Iterations 0

Mass of foam: domainIntegrate((alpha.foam*rho_foam)) [1 0 0 0 0 0 0] 0.010987032
ExecutionTime = 0.5 s


Courant Number mean: 0.00046248058 max: 0.00052586373
deltaT = 0.047619048
Time = 1.4761905

PIMPLE: iteration 1
MULES: Solving for alpha.gas
Liquid phase volume fraction = 0.94987937  Min(alpha1) = 0  Min(alpha2) = -4.4408921e-16
diagonal:  Solving for rho, Initial residual = 0, Final residual = 0, No Iterations 0
nonePBiCG:  Solving for XW, Initial residual = 0.19602719, Final residual = 6.0756553e-06, No Iterations 1
nonePBiCG:  Solving for XOH, Initial residual = 0.19073052, Final residual = 5.2011337e-06, No Iterations 1
DILUPBiCG:  Solving for TS, Initial residual = 0.0048437443, Final residual = 3.22195e-10, No Iterations 5

Solving Moments Equations. 
nonePBiCG:  Solving for mZero, Initial residual = 1.807845e-05, Final residual = 5.4053567e-12, No Iterations 2
nonePBiCG:  Solving for mOne, Initial residual = 1.807845e-05, Final residual = 5.4053489e-12, No Iterations 2
nonePBiCG:  Solving for mTwo, Initial residual = 4.023642e-10, Final residual = 1.1976417e-13, No Iterations 1
nonePBiCG:  Solving for mThree, Initial residual = 2.1556616e-30, Final residual = 2.1556616e-30, No Iterations 0
GAMG:  Solving for p_rgh, Initial residual = 0.99986479, Final residual = 0.005288203, No Iterations 8
max(U) 5.5160414e-05
min(p_rgh) 100000
GAMGPCG:  Solving for p_rgh, Initial residual = 0.99986532, Final residual = 2.9654716e-06, No Iterations 6
max(U) 5.5160412e-05
min(p_rgh) 100000
nonePBiCG:  Solving for wBA_l, Initial residual = 1.8009725e-05, Final residual = 1.8009725e-05, No Iterations 0
nonePBiCG:  Solving for wBA_g, Initial residual = 0, Final residual = 0, No Iterations 0
nonePBiCG:  Solving for wCO2_l, Initial residual = 0.0087016965, Final residual = 1.2126776e-06, No Iterations 1
nonePBiCG:  Solving for wCO2_g, Initial residual = 1.8061054e-05, Final residual = 1.8061054e-05, No Iterations 0

Mass of foam: domainIntegrate((alpha.foam*rho_foam)) [1 0 0 0 0 0 0] 0.010987785
ExecutionTime = 0.51 s


Courant Number mean: 0.00046161102 max: 0.00052582543
deltaT = 0.047619048
Time = 1.5238095

PIMPLE: iteration 1
MULES: Solving for alpha.gas
Liquid phase volume fraction = 0.94987593  Min(alpha1) = 0  Min(alpha2) = -4.4408921e-16
diagonal:  Solving for rho, Initial residual = 0, Final residual = 0, No Iterations 0
nonePBiCG:  Solving for XW, Initial residual = 0.18866202, Final residual = 5.8585373e-06, No Iterations 1
nonePBiCG:  Solving for XOH, Initial residual = 0.18354398, Final residual = 5.0067685e-06, No Iterations 1
DILUPBiCG:  Solving for TS, Initial residual = 0.004791986, Final residual = 3.3068255e-10, No Iterations 5

Solving Moments Equations. 
nonePBiCG:  Solving for mZero, Initial residual = 1.8063479e-05, Final residual = 5.3248713e-12, No Iterations 2
nonePBiCG:  Solving for mOne, Initial residual = 1.8063479e-05, Final residual = 5.3248642e-12, No Iterations 2
nonePBiCG:  Solving for mTwo, Initial residual = 4.0202951e-10, Final residual = 1.189892e-13, No Iterations 1
nonePBiCG:  Solving for mThree, Initial residual = 2.153697e-30, Final residual = 2.153697e-30, No Iterations 0
GAMG:  Solving for p_rgh, Initial residual = 0.99986478, Final residual = 0.0052897464, No Iterations 8
max(U) 5.5160305e-05
min(p_rgh) 100000
GAMGPCG:  Solving for p_rgh, Initial residual = 0.9998648, Final residual = 2.9765981e-06, No Iterations 6
max(U) 5.5160302e-05
min(p_rgh) 100000
nonePBiCG:  Solving for wBA_l, Initial residual = 1.7993268e-05, Final residual = 1.7993268e-05, No Iterations 0
nonePBiCG:  Solving for wBA_g, Initial residual = 0, Final residual = 0, No Iterations 0
nonePBiCG:  Solving for wCO2_l, Initial residual = 0.0084252876, Final residual = 1.1732938e-06, No Iterations 1
nonePBiCG:  Solving for wCO2_g, Initial residual = 1.8044546e-05, Final residual = 1.8044546e-05, No Iterations 0

Mass of foam: domainIntegrate((alpha.foam*rho_foam)) [1 0 0 0 0 0 0] 0.010988538
ExecutionTime = 0.52 s


Courant Number mean: 0.00046075688 max: 0.00052580852
deltaT = 0.047619048
Time = 1.5714286

PIMPLE: iteration 1
MULES: Solving for alpha.gas
Liquid phase volume fraction = 0.9498725  Min(alpha1) = 0  Min(alpha2) = -4.4408921e-16
diagonal:  Solving for rho, Initial residual = 0, Final residual = 0, No Iterations 0
nonePBiCG:  Solving for XW, Initial residual = 0.18183019, Final residual = 5.6572139e-06, No Iterations 1
nonePBiCG:  Solving for XOH, Initial residual = 0.17687575, Final residual = 4.8264628e-06, No Iterations 1
DILUPBiCG:  Solving for TS, Initial residual = 0.0047414952, Final residual = 3.3744905e-10, No Iterations 5

Solving Moments Equations. 
nonePBiCG:  Solving for mZero, Initial residual = 1.8049914e-05, Final residual = 5.2485163e-12, No Iterations 2
nonePBiCG:  Solving for mOne, Initial residual = 1.8049914e-05, Final residual = 5.2485098e-12, No Iterations 2
nonePBiCG:  Solving for mTwo, Initial residual = 4.0172611e-10, Final residual = 1.1823803e-13, No Iterations 1
nonePBiCG:  Solving for mThree, Initial residual = 2.151906e-30, Final residual = 2.151906e-30, No Iterations 0
GAMG:  Solving for p_rgh, Initial residual = 0.99985865, Final residual = 0.0052854187, No Iterations 8
max(U) 5.5160197e-05
min(p_rgh) 100000
GAMGPCG:  Solving for p_rgh, Initial residual = 0.99985928, Final residual = 2.9880411e-06, No Iterations 6
max(U) 5.5160192e-05
min(p_rgh) 100000
nonePBiCG:  Solving for wBA_l, Initial residual = 1.7978152e-05, Final residual = 1.7978152e-05, No Iterations 0
nonePBiCG:  Solving for wBA_g, Initial residual = 0, Final residual = 0, No Iterations 0
nonePBiCG:  Solving for wCO2_l, Initial residual = 0.0081659975, Final residual = 1.1364268e-06, No Iterations 1
nonePBiCG:  Solving for wCO2_g, Initial residual = 1.8029382e-05, Final residual = 1.8029382e-05, No Iterations 0

Mass of foam: domainIntegrate((alpha.foam*rho_foam)) [1 0 0 0 0 0 0] 0.01098929
ExecutionTime = 0.53 s


Courant Number mean: 0.00045991757 max: 0.00052578955
deltaT = 0.047619048
Time = 1.6190476

PIMPLE: iteration 1
MULES: Solving for alpha.gas
Liquid phase volume fraction = 0.94986908  Min(alpha1) = 0  Min(alpha2) = -4.4408921e-16
diagonal:  Solving for rho, Initial residual = 0, Final residual = 0, No Iterations 0
nonePBiCG:  Solving for XW, Initial residual = 0.17547577, Final residual = 5.4700407e-06, No Iterations 1
nonePBiCG:  Solving for XOH, Initial residual = 0.17067167, Final residual = 4.6587596e-06, No Iterations 1
DILUPBiCG:  Solving for TS, Initial residual = 0.0046922136, Final residual = 3.4246415e-10, No Iterations 5

Solving Moments Equations. 
nonePBiCG:  Solving for mZero, Initial residual = 1.8037565e-05, Final residual = 5.1758428e-12, No Iterations 2
nonePBiCG:  Solving for mOne, Initial residual = 1.8037565e-05, Final residual = 5.1758369e-12, No Iterations 2
nonePBiCG:  Solving for mTwo, Initial residual = 4.0144978e-10, Final residual = 1.1750902e-13, No Iterations 1
nonePBiCG:  Solving for mThree, Initial residual = 2.1502656e-30, Final residual = 2.1502656e-30, No Iterations 0
GAMG:  Solving for p_rgh, Initial residual = 0.99984415, Final residual = 0.0052812815, No Iterations 8
max(U) 5.5160086e-05
min(p_rgh) 100000
GAMGPCG:  Solving for p_rgh, Initial residual = 0.99984412, Final residual = 2.9995737e-06, No Iterations 6
max(U) 5.5160083e-05
min(p_rgh) 100000
nonePBiCG:  Solving for wBA_l, Initial residual = 1.7964213e-05, Final residual = 1.7964213e-05, No Iterations 0
nonePBiCG:  Solving for wBA_g, Initial residual = 0, Final residual = 0, No Iterations 0
nonePBiCG:  Solving for wCO2_l, Initial residual = 0.0079222825, Final residual = 1.1018424e-06, No Iterations 1
nonePBiCG:  Solving for wCO2_g, Initial residual = 1.8015399e-05, Final residual = 1.8015399e-05, No Iterations 0

Mass of foam: domainIntegrate((alpha.foam*rho_foam)) [1 0 0 0 0 0 0] 0.010990041
ExecutionTime = 0.54 s


Courant Number mean: 0.00045909256 max: 0.0005257684
deltaT = 0.047619048
Time = 1.6666667

PIMPLE: iteration 1
MULES: Solving for alpha.gas
Liquid phase volume fraction = 0.94986565  Min(alpha1) = 0  Min(alpha2) = -4.4408921e-16
diagonal:  Solving for rho, Initial residual = 0, Final residual = 0, No Iterations 0
nonePBiCG:  Solving for XW, Initial residual = 0.16955037, Final residual = 5.2955922e-06, No Iterations 1
nonePBiCG:  Solving for XOH, Initial residual = 0.16488488, Final residual = 4.5023948e-06, No Iterations 1
DILUPBiCG:  Solving for TS, Initial residual = 0.0046440876, Final residual = 3.461457e-10, No Iterations 5

Solving Moments Equations. 
nonePBiCG:  Solving for mZero, Initial residual = 1.8026273e-05, Final residual = 5.1064739e-12, No Iterations 2
nonePBiCG:  Solving for mOne, Initial residual = 1.8026273e-05, Final residual = 5.1064685e-12, No Iterations 2
nonePBiCG:  Solving for mTwo, Initial residual = 4.0119699e-10, Final residual = 1.1680077e-13, No Iterations 1
nonePBiCG:  Solving for mThree, Initial residual = 2.1487565e-30, Final residual = 2.1487565e-30, No Iterations 0
GAMG:  Solving for p_rgh, Initial residual = 0.99985411, Final residual = 0.005278459, No Iterations 8
max(U) 5.5159978e-05
min(p_rgh) 100000
GAMGPCG:  Solving for p_rgh, Initial residual = 0.99985348, Final residual = 3.0101455e-06, No Iterations 6
max(U) 5.5159972e-05
min(p_rgh) 100000
nonePBiCG:  Solving for wBA_l, Initial residual = 1.7951314e-05, Final residual = 1.7951314e-05, No Iterations 0
nonePBiCG:  Solving for wBA_g, Initial residual = 0, Final residual = 0, No Iterations 0
nonePBiCG:  Solving for wCO2_l, Initial residual = 0.0076927791, Final residual = 1.0693347e-06, No Iterations 1
nonePBiCG:  Solving for wCO2_g, Initial residual = 1.8002458e-05, Final residual = 1.8002458e-05, No Iterations 0

Mass of foam: domainIntegrate((alpha.foam*rho_foam)) [1 0 0 0 0 0 0] 0.010990792
ExecutionTime = 0.55 s


Courant Number mean: 0.00045828132 max: 0.00052574495
deltaT = 0.047619048
Time = 1.7142857

PIMPLE: iteration 1
MULES: Solving for alpha.gas
Liquid phase volume fraction = 0.94986223  Min(alpha1) = 0  Min(alpha2) = -4.4408921e-16
diagonal:  Solving for rho, Initial residual = 0, Final residual = 0, No Iterations 0
nonePBiCG:  Solving for XW, Initial residual = 0.16401195, Final residual = 5.1326281e-06, No Iterations 1
nonePBiCG:  Solving for XOH, Initial residual = 0.15947462, Final residual = 4.3562679e-06, No Iterations 1
DILUPBiCG:  Solving for TS, Initial residual = 0.0045970683, Final residual = 3.4887994e-10, No Iterations 5

Solving Moments Equations. 
nonePBiCG:  Solving for mZero, Initial residual = 1.8015906e-05, Final residual = 5.0400907e-12, No Iterations 2
nonePBiCG:  Solving for mOne, Initial residual = 1.8015906e-05, Final residual = 5.0400856e-12, No Iterations 2
nonePBiCG:  Solving for mTwo, Initial residual = 4.0096477e-10, Final residual = 1.1611206e-13, No Iterations 1
nonePBiCG:  Solving for mThree, Initial residual = 2.1473625e-30, Final residual = 2.1473625e-30, No Iterations 0
GAMG:  Solving for p_rgh, Initial residual = 0.99986676, Final residual = 0.0052895344, No Iterations 8
max(U) 5.5159866e-05
min(p_rgh) 100000
GAMGPCG:  Solving for p_rgh, Initial residual = 0.99986805, Final residual = 3.0193829e-06, No Iterations 6
max(U) 5.5159861e-05
min(p_rgh) 100000
nonePBiCG:  Solving for wBA_l, Initial residual = 1.7939335e-05, Final residual = 1.7939335e-05, No Iterations 0
nonePBiCG:  Solving for wBA_g, Initial residual = 0, Final residual = 0, No Iterations 0
nonePBiCG:  Solving for wCO2_l, Initial residual = 0.0074762788, Final residual = 1.038722e-06, No Iterations 1
nonePBiCG:  Solving for wCO2_g, Initial residual = 1.799044e-05, Final residual = 1.799044e-05, No Iterations 0

Mass of foam: domainIntegrate((alpha.foam*rho_foam)) [1 0 0 0 0 0 0] 0.010991543
ExecutionTime = 0.56 s


Courant Number mean: 0.00045748337 max: 0.00052571906
deltaT = 0.047619048
Time = 1.7619048

PIMPLE: iteration 1
MULES: Solving for alpha.gas
Liquid phase volume fraction = 0.94985881  Min(alpha1) = 0  Min(alpha2) = -4.4408921e-16
diagonal:  Solving for rho, Initial residual = 0, Final residual = 0, No Iterations 0
nonePBiCG:  Solving for XW, Initial residual = 0.15882378, Final residual = 4.9800634e-06, No Iterations 1
nonePBiCG:  Solving for XOH, Initial residual = 0.15440527, Final residual = 4.2194159e-06, No Iterations 1
DILUPBiCG:  Solving for TS, Initial residual = 0.0045511104, Final residual = 3.5062287e-10, No Iterations 5

Solving Moments Equations. 
nonePBiCG:  Solving for mZero, Initial residual = 1.800635e-05, Final residual = 4.9764209e-12, No Iterations 2
nonePBiCG:  Solving for mOne, Initial residual = 1.800635e-05, Final residual = 4.9764162e-12, No Iterations 2
nonePBiCG:  Solving for mTwo, Initial residual = 4.0075062e-10, Final residual = 1.1544181e-13, No Iterations 1
nonePBiCG:  Solving for mThree, Initial residual = 2.1460699e-30, Final residual = 2.1460699e-30, No Iterations 0
GAMG:  Solving for p_rgh, Initial residual = 0.99985355, Final residual = 0.0052966706, No Iterations 8
max(U) 5.5159898e-05
min(p_rgh) 100000
GAMGPCG:  Solving for p_rgh, Initial residual = 0.99985336, Final residual = 3.0277064e-06, No Iterations 6
max(U) 5.5159895e-05
min(p_rgh) 100000
nonePBiCG:  Solving for wBA_l, Initial residual = 1.7928176e-05, Final residual = 1.7928176e-05, No Iterations 0
nonePBiCG:  Solving for wBA_g, Initial residual = 0, Final residual = 0, No Iterations 0
nonePBiCG:  Solving for wCO2_l, Initial residual = 0.0072717061, Final residual = 1.009843e-06, No Iterations 1
nonePBiCG:  Solving for wCO2_g, Initial residual = 1.7979244e-05, Final residual = 1.7979244e-05, No Iterations 0

Mass of foam: domainIntegrate((alpha.foam*rho_foam)) [1 0 0 0 0 0 0] 0.010992293
ExecutionTime = 0.57 s


Courant Number mean: 0.00045669823 max: 0.00052569062
deltaT = 0.047619048
Time = 1.8095238

PIMPLE: iteration 1
MULES: Solving for alpha.gas
Liquid phase volume fraction = 0.94985539  Min(alpha1) = 0  Min(alpha2) = -4.4408921e-16
diagonal:  Solving for rho, Initial residual = 0, Final residual = 0, No Iterations 0
nonePBiCG:  Solving for XW, Initial residual = 0.15395365, Final residual = 4.836946e-06, No Iterations 1
nonePBiCG:  Solving for XOH, Initial residual = 0.14964559, Final residual = 4.0909931e-06, No Iterations 1
DILUPBiCG:  Solving for TS, Initial residual = 0.0045061719, Final residual = 3.5151601e-10, No Iterations 5

Solving Moments Equations. 
nonePBiCG:  Solving for mZero, Initial residual = 1.7997511e-05, Final residual = 4.9152309e-12, No Iterations 2
nonePBiCG:  Solving for mOne, Initial residual = 1.7997511e-05, Final residual = 4.9152266e-12, No Iterations 2
nonePBiCG:  Solving for mTwo, Initial residual = 4.0055241e-10, Final residual = 1.1478907e-13, No Iterations 1
nonePBiCG:  Solving for mThree, Initial residual = 2.1448671e-30, Final residual = 2.1448671e-30, No Iterations 0
GAMG:  Solving for p_rgh, Initial residual = 0.99984691, Final residual = 0.0052906581, No Iterations 8
max(U) 5.5159927e-05
min(p_rgh) 100000
GAMGPCG:  Solving for p_rgh, Initial residual = 0.99984624, Final residual = 3.0351373e-06, No Iterations 6
max(U) 5.5159921e-05
min(p_rgh) 100000
nonePBiCG:  Solving for wBA_l, Initial residual = 1.7917749e-05, Final residual = 1.7917749e-05, No Iterations 0
nonePBiCG:  Solving for wBA_g, Initial residual = 0, Final residual = 0, No Iterations 0
nonePBiCG:  Solving for wCO2_l, Initial residual = 0.0070781014, Final residual = 9.8255432e-07, No Iterations 1
nonePBiCG:  Solving for wCO2_g, Initial residual = 1.7968782e-05, Final residual = 1.7968782e-05, No Iterations 0

Mass of foam: domainIntegrate((alpha.foam*rho_foam)) [1 0 0 0 0 0 0] 0.010993043
ExecutionTime = 0.57 s


Courant Number mean: 0.00045592545 max: 0.0005256595
deltaT = 0.047619048
Time = 1.8571429

PIMPLE: iteration 1
MULES: Solving for alpha.gas
Liquid phase volume fraction = 0.94985197  Min(alpha1) = 0  Min(alpha2) = -4.4408921e-16
diagonal:  Solving for rho, Initial residual = 0, Final residual = 0, No Iterations 0
nonePBiCG:  Solving for XW, Initial residual = 0.14937317, Final residual = 4.7024368e-06, No Iterations 1
nonePBiCG:  Solving for XOH, Initial residual = 0.14516801, Final residual = 3.970254e-06, No Iterations 1
DILUPBiCG:  Solving for TS, Initial residual = 0.0044622142, Final residual = 3.5170127e-10, No Iterations 5

Solving Moments Equations. 
nonePBiCG:  Solving for mZero, Initial residual = 1.7989306e-05, Final residual = 4.8563185e-12, No Iterations 2
nonePBiCG:  Solving for mOne, Initial residual = 1.7989306e-05, Final residual = 4.8563144e-12, No Iterations 2
nonePBiCG:  Solving for mTwo, Initial residual = 4.0036835e-10, Final residual = 1.1415298e-13, No Iterations 1
nonePBiCG:  Solving for mThree, Initial residual = 2.143744e-30, Final residual = 2.143744e-30, No Iterations 0
GAMG:  Solving for p_rgh, Initial residual = 0.99986223, Final residual = 0.0052900086, No Iterations 8
max(U) 5.5159804e-05
min(p_rgh) 100000
GAMGPCG:  Solving for p_rgh, Initial residual = 0.99986228, Final residual = 3.0411058e-06, No Iterations 6
max(U) 5.5159796e-05
min(p_rgh) 100000
nonePBiCG:  Solving for wBA_l, Initial residual = 1.7907978e-05, Final residual = 1.7907978e-05, No Iterations 0
nonePBiCG:  Solving for wBA_g, Initial residual = 0, Final residual = 0, No Iterations 0
nonePBiCG:  Solving for wCO2_l, Initial residual = 0.0068946049, Final residual = 9.5672805e-07, No Iterations 1
nonePBiCG:  Solving for wCO2_g, Initial residual = 1.7958979e-05, Final residual = 1.7958979e-05, No Iterations 0

Mass of foam: domainIntegrate((alpha.foam*rho_foam)) [1 0 0 0 0 0 0] 0.010993792
ExecutionTime = 0.59 s


Courant Number mean: 0.00045516462 max: 0.00052562558
deltaT = 0.047619048
Time = 1.9047619

PIMPLE: iteration 1
MULES: Solving for alpha.gas
Liquid phase volume fraction = 0.94984856  Min(alpha1) = 0  Min(alpha2) = -4.4408921e-16
diagonal:  Solving for rho, Initial residual = 0, Final residual = 0, No Iterations 0
nonePBiCG:  Solving for XW, Initial residual = 0.14505723, Final residual = 4.5757931e-06, No Iterations 1
nonePBiCG:  Solving for XOH, Initial residual = 0.14094817, Final residual = 3.8565384e-06, No Iterations 1
DILUPBiCG:  Solving for TS, Initial residual = 0.0044192008, Final residual = 3.5130079e-10, No Iterations 5

Solving Moments Equations. 
nonePBiCG:  Solving for mZero, Initial residual = 1.7981667e-05, Final residual = 4.7995078e-12, No Iterations 2
nonePBiCG:  Solving for mOne, Initial residual = 1.7981667e-05, Final residual = 4.799504e-12, No Iterations 2
[...]
Time = 47.527778

PIMPLE: iteration 1

Mass of foam: domainIntegrate((alpha.foam*rho_foam)) [1 0 0 0 0 0 0] 0.0099470243
ExecutionTime = 8.27 s


Courant Number mean: 0.033858646 max: 0.1971995
deltaT = 0.027777778
Time = 47.555556

PIMPLE: iteration 1

Mass of foam: domainIntegrate((alpha.foam*rho_foam)) [1 0 0 0 0 0 0] 0.0099470243
ExecutionTime = 8.27 s


Courant Number mean: 0.033858646 max: 0.1971995
deltaT = 0.027777778
Time = 47.583333

PIMPLE: iteration 1

Mass of foam: domainIntegrate((alpha.foam*rho_foam)) [1 0 0 0 0 0 0] 0.0099470243
ExecutionTime = 8.27 s


Courant Number mean: 0.033858646 max: 0.1971995
deltaT = 0.027777778
Time = 47.611111

PIMPLE: iteration 1

Mass of foam: domainIntegrate((alpha.foam*rho_foam)) [1 0 0 0 0 0 0] 0.0099470243
ExecutionTime = 8.27 s


Courant Number mean: 0.033858646 max: 0.1971995
deltaT = 0.027777778
Time = 47.638889

PIMPLE: iteration 1

Mass of foam: domainIntegrate((alpha.foam*rho_foam)) [1 0 0 0 0 0 0] 0.0099470243
ExecutionTime = 8.27 s


Courant Number mean: 0.033858646 max: 0.1971995
deltaT = 0.027777778
Time = 47.666667

PIMPLE: iteration 1

Mass of foam: domainIntegrate((alpha.foam*rho_foam)) [1 0 0 0 0 0 0] 0.0099470243
ExecutionTime = 8.27 s


Courant Number mean: 0.033858646 max: 0.1971995
deltaT = 0.027777778
Time = 47.694444

PIMPLE: iteration 1

Mass of foam: domainIntegrate((alpha.foam*rho_foam)) [1 0 0 0 0 0 0] 0.0099470243
ExecutionTime = 8.27 s


Courant Number mean: 0.033858646 max: 0.1971995
deltaT = 0.027777778
Time = 47.722222

PIMPLE: iteration 1

Mass of foam: domainIntegrate((alpha.foam*rho_foam)) [1 0 0 0 0 0 0] 0.0099470243
ExecutionTime = 8.28 s


Courant Number mean: 0.033858646 max: 0.1971995
deltaT = 0.027777778
Time = 47.75

PIMPLE: iteration 1

Mass of foam: domainIntegrate((alpha.foam*rho_foam)) [1 0 0 0 0 0 0] 0.0099470243
ExecutionTime = 8.28 s


Courant Number mean: 0.033858646 max: 0.1971995
deltaT = 0.027777778
Time = 47.777778

PIMPLE: iteration 1

Mass of foam: domainIntegrate((alpha.foam*rho_foam)) [1 0 0 0 0 0 0] 0.0099470243
ExecutionTime = 8.28 s


Courant Number mean: 0.033858646 max: 0.1971995
deltaT = 0.027777778
Time = 47.805556

PIMPLE: iteration 1

Mass of foam: domainIntegrate((alpha.foam*rho_foam)) [1 0 0 0 0 0 0] 0.0099470243
ExecutionTime = 8.28 s


Courant Number mean: 0.033858646 max: 0.1971995
deltaT = 0.027777778
Time = 47.833333

PIMPLE: iteration 1

Mass of foam: domainIntegrate((alpha.foam*rho_foam)) [1 0 0 0 0 0 0] 0.0099470243
ExecutionTime = 8.28 s


Courant Number mean: 0.033858646 max: 0.1971995
deltaT = 0.027777778
Time = 47.861111

PIMPLE: iteration 1

Mass of foam: domainIntegrate((alpha.foam*rho_foam)) [1 0 0 0 0 0 0] 0.0099470243
ExecutionTime = 8.28 s


Courant Number mean: 0.033858646 max: 0.1971995
deltaT = 0.027777778
Time = 47.888889

PIMPLE: iteration 1

Mass of foam: domainIntegrate((alpha.foam*rho_foam)) [1 0 0 0 0 0 0] 0.0099470243
ExecutionTime = 8.28 s


Courant Number mean: 0.033858646 max: 0.1971995
deltaT = 0.027777778
Time = 47.916667

PIMPLE: iteration 1

Mass of foam: domainIntegrate((alpha.foam*rho_foam)) [1 0 0 0 0 0 0] 0.0099470243
ExecutionTime = 8.28 s


Courant Number mean: 0.033858646 max: 0.1971995
deltaT = 0.027777778
Time = 47.944444

PIMPLE: iteration 1

Mass of foam: domainIntegrate((alpha.foam*rho_foam)) [1 0 0 0 0 0 0] 0.0099470243
ExecutionTime = 8.28 s


Courant Number mean: 0.033858646 max: 0.1971995
deltaT = 0.027777778
Time = 47.972222

PIMPLE: iteration 1

Mass of foam: domainIntegrate((alpha.foam*rho_foam)) [1 0 0 0 0 0 0] 0.0099470243
ExecutionTime = 8.28 s


Courant Number mean: 0.033858646 max: 0.1971995
deltaT = 0.027777778
Time = 48

PIMPLE: iteration 1

Mass of foam: domainIntegrate((alpha.foam*rho_foam)) [1 0 0 0 0 0 0] 0.0099470243
ExecutionTime = 8.3 s


cellSource volAverage output:
    volAverage() of alpha.gas = 0.0097188447
    volAverage() of mZero = 6.8907714e+12
    volAverage() of mOne = 21.895347
    volAverage() of rho_foam = 50.682115
    volAverage() of rho = 49.746784

Courant Number mean: 0.033858646 max: 0.1971995
deltaT = 0.027777778
Time = 48.027778

PIMPLE: iteration 1

Mass of foam: domainIntegrate((alpha.foam*rho_foam)) [1 0 0 0 0 0 0] 0.0099470243
ExecutionTime = 8.3 s


Courant Number mean: 0.033858646 max: 0.1971995
deltaT = 0.027777778
Time = 48.055556

PIMPLE: iteration 1

Mass of foam: domainIntegrate((alpha.foam*rho_foam)) [1 0 0 0 0 0 0] 0.0099470243
ExecutionTime = 8.3 s


Courant Number mean: 0.033858646 max: 0.1971995
deltaT = 0.027777778
Time = 48.083333

PIMPLE: iteration 1

Mass of foam: domainIntegrate((alpha.foam*rho_foam)) [1 0 0 0 0 0 0] 0.0099470243
ExecutionTime = 8.3 s


Courant Number mean: 0.033858646 max: 0.1971995
deltaT = 0.027777778
Time = 48.111111

PIMPLE: iteration 1

Mass of foam: domainIntegrate((alpha.foam*rho_foam)) [1 0 0 0 0 0 0] 0.0099470243
ExecutionTime = 8.3 s


Courant Number mean: 0.033858646 max: 0.1971995
deltaT = 0.027777778
Time = 48.138889

PIMPLE: iteration 1

Mass of foam: domainIntegrate((alpha.foam*rho_foam)) [1 0 0 0 0 0 0] 0.0099470243
ExecutionTime = 8.3 s


Courant Number mean: 0.033858646 max: 0.1971995
deltaT = 0.027777778
Time = 48.166667

PIMPLE: iteration 1

Mass of foam: domainIntegrate((alpha.foam*rho_foam)) [1 0 0 0 0 0 0] 0.0099470243
ExecutionTime = 8.3 s


Courant Number mean: 0.033858646 max: 0.1971995
deltaT = 0.027777778
Time = 48.194444

PIMPLE: iteration 1

Mass of foam: domainIntegrate((alpha.foam*rho_foam)) [1 0 0 0 0 0 0] 0.0099470243
ExecutionTime = 8.3 s


Courant Number mean: 0.033858646 max: 0.1971995
deltaT = 0.027777778
Time = 48.222222

PIMPLE: iteration 1

Mass of foam: domainIntegrate((alpha.foam*rho_foam)) [1 0 0 0 0 0 0] 0.0099470243
ExecutionTime = 8.3 s


Courant Number mean: 0.033858646 max: 0.1971995
deltaT = 0.027777778
Time = 48.25

PIMPLE: iteration 1

Mass of foam: domainIntegrate((alpha.foam*rho_foam)) [1 0 0 0 0 0 0] 0.0099470243
ExecutionTime = 8.3 s


Courant Number mean: 0.033858646 max: 0.1971995
deltaT = 0.027777778
Time = 48.277778

PIMPLE: iteration 1

Mass of foam: domainIntegrate((alpha.foam*rho_foam)) [1 0 0 0 0 0 0] 0.0099470243
ExecutionTime = 8.3 s


Courant Number mean: 0.033858646 max: 0.1971995
deltaT = 0.027777778
Time = 48.305556

PIMPLE: iteration 1

Mass of foam: domainIntegrate((alpha.foam*rho_foam)) [1 0 0 0 0 0 0] 0.0099470243
ExecutionTime = 8.3 s


Courant Number mean: 0.033858646 max: 0.1971995
deltaT = 0.027777778
Time = 48.333333

PIMPLE: iteration 1

Mass of foam: domainIntegrate((alpha.foam*rho_foam)) [1 0 0 0 0 0 0] 0.0099470243
ExecutionTime = 8.3 s


Courant Number mean: 0.033858646 max: 0.1971995
deltaT = 0.027777778
Time = 48.361111

PIMPLE: iteration 1

Mass of foam: domainIntegrate((alpha.foam*rho_foam)) [1 0 0 0 0 0 0] 0.0099470243
ExecutionTime = 8.3 s


Courant Number mean: 0.033858646 max: 0.1971995
deltaT = 0.027777778
Time = 48.388889

PIMPLE: iteration 1

Mass of foam: domainIntegrate((alpha.foam*rho_foam)) [1 0 0 0 0 0 0] 0.0099470243
ExecutionTime = 8.3 s


Courant Number mean: 0.033858646 max: 0.1971995
deltaT = 0.027777778
Time = 48.416667

PIMPLE: iteration 1

Mass of foam: domainIntegrate((alpha.foam*rho_foam)) [1 0 0 0 0 0 0] 0.0099470243
ExecutionTime = 8.3 s


Courant Number mean: 0.033858646 max: 0.1971995
deltaT = 0.027777778
Time = 48.444444

PIMPLE: iteration 1

Mass of foam: domainIntegrate((alpha.foam*rho_foam)) [1 0 0 0 0 0 0] 0.0099470243
ExecutionTime = 8.3 s


Courant Number mean: 0.033858646 max: 0.1971995
deltaT = 0.027777778
Time = 48.472222

PIMPLE: iteration 1

Mass of foam: domainIntegrate((alpha.foam*rho_foam)) [1 0 0 0 0 0 0] 0.0099470243
ExecutionTime = 8.3 s


Courant Number mean: 0.033858646 max: 0.1971995
deltaT = 0.027777778
Time = 48.5

PIMPLE: iteration 1

Mass of foam: domainIntegrate((alpha.foam*rho_foam)) [1 0 0 0 0 0 0] 0.0099470243
ExecutionTime = 8.3 s


Courant Number mean: 0.033858646 max: 0.1971995
deltaT = 0.027777778
Time = 48.527778

PIMPLE: iteration 1

Mass of foam: domainIntegrate((alpha.foam*rho_foam)) [1 0 0 0 0 0 0] 0.0099470243
ExecutionTime = 8.3 s


Courant Number mean: 0.033858646 max: 0.1971995
deltaT = 0.027777778
Time = 48.555556

PIMPLE: iteration 1

Mass of foam: domainIntegrate((alpha.foam*rho_foam)) [1 0 0 0 0 0 0] 0.0099470243
ExecutionTime = 8.31 s


Courant Number mean: 0.033858646 max: 0.1971995
deltaT = 0.027777778
Time = 48.583333

PIMPLE: iteration 1

Mass of foam: domainIntegrate((alpha.foam*rho_foam)) [1 0 0 0 0 0 0] 0.0099470243
ExecutionTime = 8.31 s


Courant Number mean: 0.033858646 max: 0.1971995
deltaT = 0.027777778
Time = 48.611111

PIMPLE: iteration 1

Mass of foam: domainIntegrate((alpha.foam*rho_foam)) [1 0 0 0 0 0 0] 0.0099470243
ExecutionTime = 8.31 s


Courant Number mean: 0.033858646 max: 0.1971995
deltaT = 0.027777778
Time = 48.638889

PIMPLE: iteration 1

Mass of foam: domainIntegrate((alpha.foam*rho_foam)) [1 0 0 0 0 0 0] 0.0099470243
ExecutionTime = 8.31 s


Courant Number mean: 0.033858646 max: 0.1971995
deltaT = 0.027777778
Time = 48.666667

PIMPLE: iteration 1

Mass of foam: domainIntegrate((alpha.foam*rho_foam)) [1 0 0 0 0 0 0] 0.0099470243
ExecutionTime = 8.31 s


Courant Number mean: 0.033858646 max: 0.1971995
deltaT = 0.027777778
Time = 48.694444

PIMPLE: iteration 1

Mass of foam: domainIntegrate((alpha.foam*rho_foam)) [1 0 0 0 0 0 0] 0.0099470243
ExecutionTime = 8.31 s


Courant Number mean: 0.033858646 max: 0.1971995
deltaT = 0.027777778
Time = 48.722222

PIMPLE: iteration 1

Mass of foam: domainIntegrate((alpha.foam*rho_foam)) [1 0 0 0 0 0 0] 0.0099470243
ExecutionTime = 8.31 s


Courant Number mean: 0.033858646 max: 0.1971995
deltaT = 0.027777778
Time = 48.75

PIMPLE: iteration 1

Mass of foam: domainIntegrate((alpha.foam*rho_foam)) [1 0 0 0 0 0 0] 0.0099470243
ExecutionTime = 8.31 s


Courant Number mean: 0.033858646 max: 0.1971995
deltaT = 0.027777778
Time = 48.777778

PIMPLE: iteration 1

Mass of foam: domainIntegrate((alpha.foam*rho_foam)) [1 0 0 0 0 0 0] 0.0099470243
ExecutionTime = 8.31 s


Courant Number mean: 0.033858646 max: 0.1971995
deltaT = 0.027777778
Time = 48.805556

PIMPLE: iteration 1

Mass of foam: domainIntegrate((alpha.foam*rho_foam)) [1 0 0 0 0 0 0] 0.0099470243
ExecutionTime = 8.31 s


Courant Number mean: 0.033858646 max: 0.1971995
deltaT = 0.027777778
Time = 48.833333

PIMPLE: iteration 1

Mass of foam: domainIntegrate((alpha.foam*rho_foam)) [1 0 0 0 0 0 0] 0.0099470243
ExecutionTime = 8.31 s


Courant Number mean: 0.033858646 max: 0.1971995
deltaT = 0.027777778
Time = 48.861111

PIMPLE: iteration 1

Mass of foam: domainIntegrate((alpha.foam*rho_foam)) [1 0 0 0 0 0 0] 0.0099470243
ExecutionTime = 8.31 s


Courant Number mean: 0.033858646 max: 0.1971995
deltaT = 0.027777778
Time = 48.888889

PIMPLE: iteration 1

Mass of foam: domainIntegrate((alpha.foam*rho_foam)) [1 0 0 0 0 0 0] 0.0099470243
ExecutionTime = 8.31 s


Courant Number mean: 0.033858646 max: 0.1971995
deltaT = 0.027777778
Time = 48.916667

PIMPLE: iteration 1

Mass of foam: domainIntegrate((alpha.foam*rho_foam)) [1 0 0 0 0 0 0] 0.0099470243
ExecutionTime = 8.31 s


Courant Number mean: 0.033858646 max: 0.1971995
deltaT = 0.027777778
Time = 48.944444

PIMPLE: iteration 1

Mass of foam: domainIntegrate((alpha.foam*rho_foam)) [1 0 0 0 0 0 0] 0.0099470243
ExecutionTime = 8.31 s


Courant Number mean: 0.033858646 max: 0.1971995
deltaT = 0.027777778
Time = 48.972222

PIMPLE: iteration 1

Mass of foam: domainIntegrate((alpha.foam*rho_foam)) [1 0 0 0 0 0 0] 0.0099470243
ExecutionTime = 8.31 s


Courant Number mean: 0.033858646 max: 0.1971995
deltaT = 0.027777778
Time = 49

PIMPLE: iteration 1

Mass of foam: domainIntegrate((alpha.foam*rho_foam)) [1 0 0 0 0 0 0] 0.0099470243
ExecutionTime = 8.33 s


cellSource volAverage output:
    volAverage() of alpha.gas = 0.0097188447
    volAverage() of mZero = 6.8907714e+12
    volAverage() of mOne = 21.895347
    volAverage() of rho_foam = 50.682115
    volAverage() of rho = 49.746784

Courant Number mean: 0.033858646 max: 0.1971995
deltaT = 0.027777778
Time = 49.027778

PIMPLE: iteration 1

Mass of foam: domainIntegrate((alpha.foam*rho_foam)) [1 0 0 0 0 0 0] 0.0099470243
ExecutionTime = 8.33 s


Courant Number mean: 0.033858646 max: 0.1971995
deltaT = 0.027777778
Time = 49.055556

PIMPLE: iteration 1

Mass of foam: domainIntegrate((alpha.foam*rho_foam)) [1 0 0 0 0 0 0] 0.0099470243
ExecutionTime = 8.33 s


Courant Number mean: 0.033858646 max: 0.1971995
deltaT = 0.027777778
Time = 49.083333

PIMPLE: iteration 1

Mass of foam: domainIntegrate((alpha.foam*rho_foam)) [1 0 0 0 0 0 0] 0.0099470243
ExecutionTime = 8.33 s


Courant Number mean: 0.033858646 max: 0.1971995
deltaT = 0.027777778
Time = 49.111111

PIMPLE: iteration 1

Mass of foam: domainIntegrate((alpha.foam*rho_foam)) [1 0 0 0 0 0 0] 0.0099470243
ExecutionTime = 8.33 s


Courant Number mean: 0.033858646 max: 0.1971995
deltaT = 0.027777778
Time = 49.138889

PIMPLE: iteration 1

Mass of foam: domainIntegrate((alpha.foam*rho_foam)) [1 0 0 0 0 0 0] 0.0099470243
ExecutionTime = 8.34 s


Courant Number mean: 0.033858646 max: 0.1971995
deltaT = 0.027777778
Time = 49.166667

PIMPLE: iteration 1

Mass of foam: domainIntegrate((alpha.foam*rho_foam)) [1 0 0 0 0 0 0] 0.0099470243
ExecutionTime = 8.34 s


Courant Number mean: 0.033858646 max: 0.1971995
deltaT = 0.027777778
Time = 49.194444

PIMPLE: iteration 1

Mass of foam: domainIntegrate((alpha.foam*rho_foam)) [1 0 0 0 0 0 0] 0.0099470243
ExecutionTime = 8.34 s


Courant Number mean: 0.033858646 max: 0.1971995
deltaT = 0.027777778
Time = 49.222222

PIMPLE: iteration 1

Mass of foam: domainIntegrate((alpha.foam*rho_foam)) [1 0 0 0 0 0 0] 0.0099470243
ExecutionTime = 8.34 s


Courant Number mean: 0.033858646 max: 0.1971995
deltaT = 0.027777778
Time = 49.25

PIMPLE: iteration 1

Mass of foam: domainIntegrate((alpha.foam*rho_foam)) [1 0 0 0 0 0 0] 0.0099470243
ExecutionTime = 8.34 s


Courant Number mean: 0.033858646 max: 0.1971995
deltaT = 0.027777778
Time = 49.277778

PIMPLE: iteration 1

Mass of foam: domainIntegrate((alpha.foam*rho_foam)) [1 0 0 0 0 0 0] 0.0099470243
ExecutionTime = 8.34 s


Courant Number mean: 0.033858646 max: 0.1971995
deltaT = 0.027777778
Time = 49.305556

PIMPLE: iteration 1

Mass of foam: domainIntegrate((alpha.foam*rho_foam)) [1 0 0 0 0 0 0] 0.0099470243
ExecutionTime = 8.34 s


Courant Number mean: 0.033858646 max: 0.1971995
deltaT = 0.027777778
Time = 49.333333

PIMPLE: iteration 1

Mass of foam: domainIntegrate((alpha.foam*rho_foam)) [1 0 0 0 0 0 0] 0.0099470243
ExecutionTime = 8.34 s


Courant Number mean: 0.033858646 max: 0.1971995
deltaT = 0.027777778
Time = 49.361111

PIMPLE: iteration 1

Mass of foam: domainIntegrate((alpha.foam*rho_foam)) [1 0 0 0 0 0 0] 0.0099470243
ExecutionTime = 8.34 s


Courant Number mean: 0.033858646 max: 0.1971995
deltaT = 0.027777778
Time = 49.388889

PIMPLE: iteration 1

Mass of foam: domainIntegrate((alpha.foam*rho_foam)) [1 0 0 0 0 0 0] 0.0099470243
ExecutionTime = 8.34 s


Courant Number mean: 0.033858646 max: 0.1971995
deltaT = 0.027777778
Time = 49.416667

PIMPLE: iteration 1

Mass of foam: domainIntegrate((alpha.foam*rho_foam)) [1 0 0 0 0 0 0] 0.0099470243
ExecutionTime = 8.34 s


Courant Number mean: 0.033858646 max: 0.1971995
deltaT = 0.027777778
Time = 49.444444

PIMPLE: iteration 1

Mass of foam: domainIntegrate((alpha.foam*rho_foam)) [1 0 0 0 0 0 0] 0.0099470243
ExecutionTime = 8.34 s


Courant Number mean: 0.033858646 max: 0.1971995
deltaT = 0.027777778
Time = 49.472222

PIMPLE: iteration 1

Mass of foam: domainIntegrate((alpha.foam*rho_foam)) [1 0 0 0 0 0 0] 0.0099470243
ExecutionTime = 8.34 s


Courant Number mean: 0.033858646 max: 0.1971995
deltaT = 0.027777778
Time = 49.5

PIMPLE: iteration 1

Mass of foam: domainIntegrate((alpha.foam*rho_foam)) [1 0 0 0 0 0 0] 0.0099470243
ExecutionTime = 8.34 s


Courant Number mean: 0.033858646 max: 0.1971995
deltaT = 0.027777778
Time = 49.527778

PIMPLE: iteration 1

Mass of foam: domainIntegrate((alpha.foam*rho_foam)) [1 0 0 0 0 0 0] 0.0099470243
ExecutionTime = 8.34 s


Courant Number mean: 0.033858646 max: 0.1971995
deltaT = 0.027777778
Time = 49.555556

PIMPLE: iteration 1

Mass of foam: domainIntegrate((alpha.foam*rho_foam)) [1 0 0 0 0 0 0] 0.0099470243
ExecutionTime = 8.34 s


Courant Number mean: 0.033858646 max: 0.1971995
deltaT = 0.027777778
Time = 49.583333

PIMPLE: iteration 1

Mass of foam: domainIntegrate((alpha.foam*rho_foam)) [1 0 0 0 0 0 0] 0.0099470243
ExecutionTime = 8.34 s


Courant Number mean: 0.033858646 max: 0.1971995
deltaT = 0.027777778
Time = 49.611111

PIMPLE: iteration 1

Mass of foam: domainIntegrate((alpha.foam*rho_foam)) [1 0 0 0 0 0 0] 0.0099470243
ExecutionTime = 8.34 s


Courant Number mean: 0.033858646 max: 0.1971995
deltaT = 0.027777778
Time = 49.638889

PIMPLE: iteration 1

Mass of foam: domainIntegrate((alpha.foam*rho_foam)) [1 0 0 0 0 0 0] 0.0099470243
ExecutionTime = 8.34 s


Courant Number mean: 0.033858646 max: 0.1971995
deltaT = 0.027777778
Time = 49.666667

PIMPLE: iteration 1

Mass of foam: domainIntegrate((alpha.foam*rho_foam)) [1 0 0 0 0 0 0] 0.0099470243
ExecutionTime = 8.34 s


Courant Number mean: 0.033858646 max: 0.1971995
deltaT = 0.027777778
Time = 49.694444

PIMPLE: iteration 1

Mass of foam: domainIntegrate((alpha.foam*rho_foam)) [1 0 0 0 0 0 0] 0.0099470243
ExecutionTime = 8.34 s


Courant Number mean: 0.033858646 max: 0.1971995
deltaT = 0.027777778
Time = 49.722222

PIMPLE: iteration 1

Mass of foam: domainIntegrate((alpha.foam*rho_foam)) [1 0 0 0 0 0 0] 0.0099470243
ExecutionTime = 8.34 s


Courant Number mean: 0.033858646 max: 0.1971995
deltaT = 0.027777778
Time = 49.75

PIMPLE: iteration 1

Mass of foam: domainIntegrate((alpha.foam*rho_foam)) [1 0 0 0 0 0 0] 0.0099470243
ExecutionTime = 8.34 s


Courant Number mean: 0.033858646 max: 0.1971995
deltaT = 0.027777778
Time = 49.777778

PIMPLE: iteration 1

Mass of foam: domainIntegrate((alpha.foam*rho_foam)) [1 0 0 0 0 0 0] 0.0099470243
ExecutionTime = 8.34 s


Courant Number mean: 0.033858646 max: 0.1971995
deltaT = 0.027777778
Time = 49.805556

PIMPLE: iteration 1

Mass of foam: domainIntegrate((alpha.foam*rho_foam)) [1 0 0 0 0 0 0] 0.0099470243
ExecutionTime = 8.34 s


Courant Number mean: 0.033858646 max: 0.1971995
deltaT = 0.027777778
Time = 49.833333

PIMPLE: iteration 1

Mass of foam: domainIntegrate((alpha.foam*rho_foam)) [1 0 0 0 0 0 0] 0.0099470243
ExecutionTime = 8.34 s


Courant Number mean: 0.033858646 max: 0.1971995
deltaT = 0.027777778
Time = 49.861111

PIMPLE: iteration 1

Mass of foam: domainIntegrate((alpha.foam*rho_foam)) [1 0 0 0 0 0 0] 0.0099470243
ExecutionTime = 8.35 s


Courant Number mean: 0.033858646 max: 0.1971995
deltaT = 0.027777778
Time = 49.888889

PIMPLE: iteration 1

Mass of foam: domainIntegrate((alpha.foam*rho_foam)) [1 0 0 0 0 0 0] 0.0099470243
ExecutionTime = 8.35 s


Courant Number mean: 0.033858646 max: 0.1971995
deltaT = 0.027777778
Time = 49.916667

PIMPLE: iteration 1

Mass of foam: domainIntegrate((alpha.foam*rho_foam)) [1 0 0 0 0 0 0] 0.0099470243
ExecutionTime = 8.35 s


Courant Number mean: 0.033858646 max: 0.1971995
deltaT = 0.027777778
Time = 49.944444

PIMPLE: iteration 1

Mass of foam: domainIntegrate((alpha.foam*rho_foam)) [1 0 0 0 0 0 0] 0.0099470243
ExecutionTime = 8.35 s


Courant Number mean: 0.033858646 max: 0.1971995
deltaT = 0.027777778
Time = 49.972222

PIMPLE: iteration 1

Mass of foam: domainIntegrate((alpha.foam*rho_foam)) [1 0 0 0 0 0 0] 0.0099470243
ExecutionTime = 8.35 s


Courant Number mean: 0.033858646 max: 0.1971995
deltaT = 0.027777778
Time = 50

PIMPLE: iteration 1

Mass of foam: domainIntegrate((alpha.foam*rho_foam)) [1 0 0 0 0 0 0] 0.0099470243
ExecutionTime = 8.38 s


cellSource volAverage output:
    volAverage() of alpha.gas = 0.0097188447
    volAverage() of mZero = 6.8907714e+12
    volAverage() of mOne = 21.895347
    volAverage() of rho_foam = 50.682115
    volAverage() of rho = 49.746784

finalFoamMass : domainIntegrate((rho_foam*alpha.foam)) [1 0 0 0 0 0 0] 0.0099470243
End

